24
Coordinates from ORCA-job NEB E -49.204699054540
  C          -0.00560849074875     -1.01733294539816     -0.13258492598372
  C          -1.36907232751684     -0.79896144243751     -0.31597209414167
  C           0.42240357708429     -1.77569248644867      1.09528855661613
  H           0.58321971326687     -1.23136661214601     -1.01707762313541
  C          -1.82075453517341     -0.55860249035629     -1.76335387899594
  C           0.60626827950677      0.92836149021346      0.36371853255660
  C          -0.60079203837126      1.61597852588731      0.54813706893962
  C          -1.55249032991472      1.13761820413560      1.43238354752126
  O          -2.14124631771055     -0.42443269372856      0.61394193738311
  O           1.39664067464326      1.32156003826194     -0.64670713442289
  H           1.11780575037167      0.54133699648186      1.24049248730924
  H          -0.91433524422622      2.24732201886174     -0.27217033055375
  H          -2.50331878957805      1.64048014507417      1.50182688011676
  H          -1.23567335359242      0.63837718474279      2.33583727009576
  F           1.76141850840728     -1.61201687819721      1.36034336255892
  H           0.27674489139715     -2.85001233138937      0.92737010654718
  H          -0.13086585531734     -1.46371737265218      1.98463651885886
  F          -3.14530161362750     -0.48182534344330     -1.88104348773491
  F          -1.31763412486036      0.57897056174008     -2.28294706752460
  F          -1.40566094297337     -1.54896604653397     -2.57578681208306
  C           2.73322511313803      0.86015664857902     -0.62402080936086
  H           3.22074390546891      1.30167742394301     -1.49012443313826
  H           2.78197311212940     -0.22945817803842     -0.69152981405947
  H           3.24231043819715      1.18054558284866      0.28934214263111
