24
Coordinates from ORCA-job NEB_product E -49.238077803860
  C           2.72915473504973      1.26745783881479     -0.17456780134035
  C           1.46523936911601      1.62638858178824     -0.89654046879810
  C           2.39117647826668      0.55689337796908      1.13554895791971
  H           3.34626367925351      0.62374237753160     -0.81020912639234
  C           1.62788058441427      2.02106888360405     -2.39786136669669
  C           3.57543033135600      2.55060940874130      0.09264908340589
  C           2.74994715595734      3.61162654237528      0.76987143531331
  C           2.83367007246356      3.89154981983496      2.05658064414457
  O           0.37015797153327      1.64079994543980     -0.41109067713539
  O           4.07158109058401      2.96721930712218     -1.15865516741579
  H           4.41139917155808      2.25288347344169      0.74801200946680
  H           2.07285976927657      4.14458845661824      0.11585675439707
  H           2.22319248191207      4.65126488542514      2.51277761895130
  H           3.51392056916722      3.36532275556872      2.70708802556429
  F           3.54357654930032      0.16092360426498      1.75946713029488
  H           1.79727383097474     -0.34304484587294      0.95174453421387
  H           1.86102851225180      1.22481335923502      1.82088731141625
  F           1.74530140831432      3.34369113834968     -2.54354496955385
  F           2.67552371034899      1.44222281028501     -2.98775987153918
  F           0.54290151785501      1.64794875389090     -3.08807043535745
  C           5.06411686662910      3.96212257758199     -1.07245667779705
  H           5.36886903573432      4.16978421705999     -2.09518202537929
  H           5.92498001416047      3.60633520514089     -0.49425371173809
  H           4.67695509452263      4.87588752578941     -0.61019120594435
