24
Coordinates from ORCA-job NEB_reactant E -49.240823344700
  C           1.37486402489253     -0.19286409463934     -0.03953579216156
  C           2.14082022037961      0.90045611493510     -0.01285671360233
  C           0.44384030976930     -0.53579161937401      1.07525510187220
  H           1.39126808174734     -0.87065788814151     -0.87579245884342
  C           3.03491539463993      1.20292487680535     -1.19829336731509
  C           4.04850085542517      4.40175189175706     -0.22422291362568
  C           2.99383912678060      3.93191578487094      0.43221691028108
  C           3.04955764865027      2.73384813230298      1.32336145199935
  O           2.04374376692498      1.75505412996589      1.03379743800289
  O           3.98486576016148      5.51630615616785     -0.98365419637522
  H           5.01836377077557      3.91678155962564     -0.15620446218688
  H           2.03724734549788      4.42126781043610      0.34110887937153
  H           2.79943173688426      3.02013647862190      2.35096509643601
  H           4.04641048626711      2.28163359200867      1.31815368618635
  F           0.20048130132892     -1.88436308842730      1.09674433466168
  H          -0.52807545624737     -0.04309175476261      0.94541640842811
  H           0.86545651146437     -0.25758715317768      2.04651999358708
  F           2.63199470964436      2.27633950928060     -1.89598651887908
  F           4.32195099274424      1.42003719441359     -0.87265305731195
  F           3.05324935670811      0.18517170233395     -2.06945848626157
  C           5.14057422186236      5.81352797216222     -1.73415079179083
  H           5.33589938320934      5.03886510096584     -2.48231081571277
  H           6.01886627083150      5.91981764626413     -1.08878444029288
  H           4.94393417965812      6.75851994560466     -2.23663528646704
