20
Coordinates from ORCA-job NEB_reactant E -32.910123359280
  C           1.73944195970012     -0.06634038060584      0.17684405726144
  C           1.42247499314829     -0.33725101858157      1.44529013258808
  C           2.14277049000270     -0.93344686403445     -0.97293073712352
  H           1.76818523807161      0.98389177021400     -0.07611782834763
  C           1.05768899864067      0.77703088054762      2.38958581577400
  C           4.10424748149167     -3.56721511958936      2.25738166053925
  C           3.34282217243490     -2.71586116804408      1.59517792296066
  C           1.84501399770380     -2.73859083328572      1.68796634526253
  O           1.30343527412104     -1.50980017259712      2.12697690737681
  Br          5.98993272034590     -3.55152258308384      2.14879587448063
  H           3.72405436110959     -4.34870927933941      2.89674086014453
  H           3.78296708623996     -1.94768474755628      0.97673421261004
  H           1.52697905691252     -3.45529968777171      2.45187068559085
  H           1.40116822288993     -3.04631738246363      0.73220063513513
  F           3.51201346816801     -0.84107165573115     -1.18899705644919
  H           1.67419613511926     -0.57218576811164     -1.89543968671911
  H           1.93010520812838     -1.99636099737238     -0.85584922962608
  H           1.82851404581929      0.87264246314566      3.15246274134586
  H           0.12481851770888      0.53110944308926      2.89177234285036
  H           0.95187057224348      1.72148310117166      1.86813434434536
