21
Coordinates from ORCA-job NEB E -49.717893863690
  C           0.67029637906909      0.02577050536831      0.90524937446250
  C          -0.68622002244907      0.28008998085430      1.27419046459967
  O           1.49180138975457      1.11049692857487      0.98547676171296
  H           1.10212246209355     -0.90838520740314      1.26793556503035
  C          -1.54493783552944     -0.83459004841687      1.81477954520035
  C           0.42289305052313     -0.29201014428146     -0.91097686160296
  C          -0.14303686143825      0.91794038400770     -1.35694549116205
  C          -1.42691700222201      1.25744680354371     -0.85800134098263
  O          -1.27895074092963      1.30883555767716      0.76839777141123
  C           1.77359335525238     -0.69315570903546     -1.46322105641177
  H          -0.22725837180131     -1.16124094619888     -0.86406220409436
  H           0.52269091209848      1.71057467723936     -1.66605823424103
  H          -2.19684486226003      0.49599970812826     -0.94690652061648
  H          -1.78751584610855      2.25157968272845     -1.09007039516326
  H           2.39411612400584      0.88308334244421      0.72743066959757
  Cl         -2.15801992169403     -1.93849207364243      0.50407021172842
  Cl         -0.66073756227353     -1.84133058678163      2.96620590207017
  Cl         -2.96649490316311     -0.14478741179124      2.61097481480644
  F           2.68696411580421      0.30710878862777     -1.39819714474803
  F           2.30533783323615     -1.72036303064941     -0.75527545377540
  H           1.70711830803157     -1.01457120099359     -2.51499637782171
