21
Coordinates from ORCA-job NEB_product E -49.747009238910
  C           2.21718926645614     -1.09372753619626     -1.97009808496467
  C           1.01925013142137     -2.03820567974326     -1.81808885402413
  O           1.92903406213789      0.07576060068398     -1.24658903097309
  H           3.12862938445551     -1.58337020256594     -1.59921276176314
  C           1.10047932067865     -3.00610955590236     -0.62275087539746
  C           2.40934283981972     -0.68249743694404     -3.44166664940220
  C           3.58931283209115      0.24344838606011     -3.55215747271183
  C           3.50451652864002      1.48749387475301     -3.97812271565055
  O           0.07588851472946     -2.06011011362516     -2.54977614673573
  C           2.62820560330763     -1.91786511666583     -4.31955587005692
  H           1.50083665725170     -0.17783571421691     -3.77967018417926
  H           4.53735119503956     -0.18972528908416     -3.26449262949902
  H           2.56466113368567      1.92526099657279     -4.26874875227894
  H           4.37268673081981      2.11880576683267     -4.04885916523278
  H           2.00623200730593     -0.09379440279512     -0.29829675371469
  Cl          2.21211067408812     -4.28463475967851     -1.20762190558704
  Cl          1.78171279457172     -2.26289556057253      0.83266751720481
  Cl         -0.47666022426342     -3.70352938103980     -0.24935637244113
  F           2.95723356917879     -1.55436731803865     -5.57785936588250
  F           3.66668180392417     -2.66103910313883     -3.85615550340253
  H           1.74920517466037     -2.57646245469521     -4.38168842330719
