23
Coordinates from ORCA-job NEB E -55.844453511380
  C          -0.11021132937677     -0.26950095675223     -0.91630079313458
  C           0.46660835143633      1.03893135224650     -0.86743304377912
  C           0.64388022496793     -1.42981154291354     -1.50913358754166
  H          -1.12954699934732     -0.24335712706259     -1.30151187955007
  C           1.95495545923408      1.26936408494770     -0.69595817068301
  C          -0.54220792912435     -0.43774861942769      0.91921319725662
  C          -1.29781807336642      0.71782704022881      1.22092784745588
  C          -0.69721067324082      1.98443025067869      1.07982151832674
  O          -0.33650656556745      1.98561804852999     -0.55023767661055
  C          -1.31860786335842     -1.71738071525129      1.15602301059393
  H           0.45934404181107     -0.51150778523480      1.33727803124384
  H          -2.37205749163051      0.64645726963479      1.12278255016345
  H           0.29359959329461      2.14065984181738      1.49280910058170
  H          -1.33983106231858      2.84859703758650      1.17679697806247
  Br         -0.53102586091547     -2.92382355818161     -1.96220863875440
  Br          1.45223578514408     -0.88497918409912     -3.23285674877707
  Br          2.09637139410559     -2.10924251550854     -0.39798185237907
  F           2.16682287150501      2.54229108242846     -0.25246025872521
  H           2.49880099249509      1.16446630386477     -1.64191650613995
  H           2.39379386724899      0.59813592455583      0.05487431915586
  F          -2.37310840443183     -1.83795541250271      0.33959743734854
  F          -0.57726261503742     -2.82135924429159      1.02031612186182
  F          -1.80101771352743     -1.75011157529369      2.40755904402385
