23
Coordinates from ORCA-job NEB_reactant E -55.886827691080
  C           1.46168957016687     -0.40494545745893      0.24225635374950
  C           2.14827782758775     -0.78664606044851      1.32851201124206
  C           1.96561750354617     -0.22089307516192     -1.13458005045017
  H           0.41775655385226     -0.14907307429254      0.35004513280266
  C           3.62041529229892     -1.11199283016334      1.39966900275742
  C           0.70727223010823     -1.48662254204977      5.08636069592445
  C          -0.14663841644228     -1.08180337785627      4.16185725121185
  C           0.22099733123693     -0.76280439493850      2.75002145419340
  O           1.60821238300069     -0.94743835219966      2.55540809973567
  C           0.29462547285116     -1.79656097553965      6.49050278447913
  H           1.75933758040854     -1.62225140566986      4.89315192761180
  H          -1.19623388263157     -0.95556289645500      4.38900338152141
  H          -0.06159916270912      0.27900937578584      2.53855542104481
  H          -0.35189294240495     -1.41806796340649      2.07730962341283
  Br          0.43959394045269     -0.22493594126033     -2.37121665947596
  Br          2.87569981320621      1.53109566396580     -1.37015257929708
  Br          3.16527800369841     -1.62670630474828     -1.76477558191600
  F           4.36876870391538     -0.23303956597926      0.67256987455610
  H           3.82818685082475     -2.11701962218442      1.01295368151677
  H           3.94491336157722     -1.03882204364823      2.44187972250955
  F           0.56802682729376     -3.07082234573735      6.81890010403325
  F           0.94610835410660     -1.03082088938696      7.38166119678820
  F          -1.01381319594464     -1.61587592116636      6.71330715204835
