18
Coordinates from ORCA-job NEB E -30.208920580310
  C           1.16325016462155     -0.68541823129831     -0.17122029270204
  C          -0.19379988201064     -1.05180814768525     -0.09843129907257
  O           1.95531734588918     -0.81074313978932      0.92478171869235
  H           1.71930898752093     -0.89321918160276     -1.07800955665398
  C          -0.99983634271534     -1.25184787834589     -1.36226231847608
  C           0.82592709638503      1.24110711671885     -0.26774723843709
  C           0.15550553253733      1.47710660351579      0.92784502567431
  C          -1.12801158469429      0.90676549519415      1.10241418789528
  O          -0.83550724748632     -0.74771182615014      0.99200012336521
  H           1.83957055223835      1.60313219085496     -0.36127710513561
  H           0.26893338072765      1.26368977000879     -1.19426354531768
  H           0.74051210322709      1.68801001136729      1.81254467094996
  H          -1.83759218159510      1.01829172237886      0.28869668585799
  H          -1.58842166896211      0.98762800911502      2.07798615138611
  H           1.38247046302771     -0.81293172377733      1.70783779528724
  F          -0.19874565532444     -1.33141949579194     -2.47043681729690
  H          -1.69617410540664     -0.41646215797294     -1.52637348726925
  H          -1.57270695797994     -2.18416913673982     -1.30408469874725
