18
Coordinates from ORCA-job NEB_product E -30.240207326220
  C           1.85139463198084      1.34583210973279     -0.92653468192986
  C           0.59024648097508      1.02713266720053     -1.72338511654158
  O           1.62606810970332      1.12413309196441      0.43406922832875
  H           2.68387075088108      0.69980076921126     -1.22376873275446
  C           0.83016486535725      0.57922310506669     -3.15264490750981
  C           2.21620426566350      2.82816134454264     -1.21180607592394
  C           3.45676682333546      3.20371854057922     -0.46516817839195
  C           3.49641191359989      4.10144008201223      0.50018314104315
  O          -0.49834014569747      1.14170305284834     -1.22745345590551
  H           2.37427208479471      2.95772688412192     -2.28473791923928
  H           1.38327617163845      3.46032515875868     -0.89807571102682
  H           4.34898716335131      2.66533425159174     -0.75516075709869
  H           2.61686310500953      4.64103904123286      0.81035049056171
  H           4.40902881760395      4.33807858199255      1.01877487340805
  H           0.71115031684876      1.38111018418434      0.62563081138496
  F          -0.31618180306243      0.60060979226194     -3.89130386726106
  H           1.19605617528655     -0.45541099598634     -3.14324984510544
  H           1.56026027273023      1.22284233868421     -3.65471929603821
