18
Coordinates from ORCA-job NEB_reactant E -30.229571067540
  C           1.40846958300654      0.39428057788598     -0.13673793896133
  C           1.54186899711818      0.88683406686346     -1.36658828314098
  O           1.76051415284274      1.03693362554397      1.03341257259749
  H           0.99136432632448     -0.59603341502777     -0.03328476906447
  C           1.12510928230344      0.08545838892375     -2.57637671702222
  C           2.80702211336807      5.47020165276468     -1.11751862428573
  C           2.98689731262441      4.22945966460516     -1.52695618064747
  C           2.46911977331999      3.02161905374039     -0.81147378974229
  O           2.03087521520039      2.09025350187554     -1.79049162081261
  H           3.21832549797911      6.30936383599893     -1.65114158692032
  H           2.25012207102190      5.69701507249484     -0.22330824335466
  H           3.54139367373510      4.00931363469898     -2.42812484466310
  H           1.64736698036628      3.28510849991519     -0.13741131968414
  H           3.27454472147446      2.57500948991977     -0.21222081972912
  H           1.52927543545807      0.47528477686813      1.77785903237801
  F           0.59707559154978     -1.13056335831639     -2.23867174429874
  H           1.98935703170944     -0.10358947116074     -3.22330334377981
  H           0.36009824059760      0.62795040240615     -3.14316177886850
