18
Coordinates from ORCA-job NEB E -38.682876045880
  C           0.24353048315242      0.93085234531189      1.05857224832134
  C          -0.97687669587917      1.31725596404215      0.53154777585929
  H           1.13556567188361      1.36303132394581      0.63827663440424
  H           0.27807159604394      0.71189430533440      2.11440670030318
  O          -2.09305374587642      1.12906569232133      1.27758002922158
  C           0.37116588910732     -0.81370459192280      0.05655625818523
  C           0.22954299023679     -0.42543195168089     -1.26590472515441
  C          -1.00562228655595      0.20501479574311     -1.62620396791736
  O          -1.13001833820934      1.53485256663893     -0.74274350522473
  C           1.69554538383344     -1.36764687018485      0.49994674058742
  H          -0.45361437423492     -1.29655116006168      0.56853610918680
  H           1.11623355365113     -0.16216239458261     -1.82266745010582
  H          -1.90631608074286     -0.33904311789354     -1.34634650638908
  H          -1.06204679332744      0.59867911837089     -2.63372746310188
  H          -2.87658286180328      1.31937036081170      0.74321955011924
  F           2.73966183368299     -0.65326843461580      0.05783016599691
  F           1.81070505517555     -1.42722345173153      1.83546745780610
  F           1.88410871986220     -2.62498449984649      0.05565394790194
