18
Coordinates from ORCA-job NEB_reactant E -38.708052093140
  C           2.48102992779205     -0.91504433334403      0.55290910998345
  C           1.35778896014079     -1.57433483876523      0.30919749397146
  H           3.34459011383099     -0.97982945409295     -0.07648126690146
  H           2.54252894203691     -0.30287628629089      1.42983307668748
  O           0.28977699507807     -1.51313341111675      1.13234408661858
  C           3.34543220111215     -4.07543233708829     -0.37999436438900
  C           3.18912977275303     -3.38317267280506     -1.49612046731076
  C           2.01861386370940     -2.49942343499119     -1.79488406991852
  O           1.07622737421489     -2.38915282180127     -0.76048287775545
  C           4.52522492623397     -4.95723268928035     -0.13025264877892
  H           2.63617159235373     -4.05297275556806      0.43281624942450
  H           3.92478977275920     -3.43504068989389     -2.28729102946855
  H           1.46753602967195     -2.92652131997235     -2.64102571347961
  H           2.38074935433388     -1.50566445386948     -2.09314357682018
  H          -0.42263728504304     -2.03936278766074      0.74661906654430
  F           5.40708036688048     -4.96928277255879     -1.14044451775056
  F           5.20759247481714     -4.58700431158428      0.96721089448502
  F           4.16047461732440     -6.23671862931640      0.07139055485823
