18
Coordinates from ORCA-job NEB_product E -38.743632012820
  C           2.40683439211782     -2.02098028985875      0.33358525934750
  C           1.28216914286397     -2.38064430415891      1.28500463277909
  H           2.06049285437939     -1.18515150193771     -0.27910144092860
  H           3.27661644859685     -1.69486951388827      0.90461315279659
  O           1.44993228854008     -1.81733606049671      2.47984850192686
  C           2.74089195937073     -3.20243213144413     -0.58744054502836
  C           3.51163302634919     -2.76818325199474     -1.80293257745805
  C           3.12046650683588     -3.00925078414366     -3.03870024788530
  O           0.34034870763772     -3.06696550402218      1.00151416790175
  C           3.57162020266369     -4.22290839856707      0.18545049255429
  H           1.81052524756010     -3.70281628877101     -0.87827786124817
  H           4.43202134037184     -2.23948969110460     -1.59656264893575
  H           2.20810743858833     -3.54081977109919     -3.25225782360507
  H           3.69697681733878     -2.68440298838727     -3.88688813921939
  H           0.72523078848811     -2.05685166230275      3.07976920014194
  F           4.76916313148345     -3.73457015466857      0.55046111599023
  F           2.97693269563112     -4.62901816117720      1.31750919463854
  F           3.81403701118295     -5.32530954197728     -0.53579443376809
