20
Coordinates from ORCA-job NEB_product E -28.437026220100
  C           1.98921379122435      1.17044104162841     -1.40672248408072
  C           0.78009668824339      0.63791995126955     -2.17076029389809
  H           1.80059263172207      1.01110611509127     -0.33925104314015
  H           2.90002912130003      0.63682031661301     -1.68170689973316
  C           1.05933792001674     -0.56109220167218     -3.04027860625347
  C           2.13964615670132      2.66836684590274     -1.63058545720140
  C           3.19465630341357      3.27990471759575     -0.78717356962034
  C           3.00492233005461      4.35845893211129     -0.04798949322876
  O          -0.29763055606002      1.16384001826486     -2.07447458065934
  I           2.65159683966427      3.01985846644960     -3.74007428254677
  H           1.17866200814874      3.16537058716687     -1.49831280300095
  H           4.15760490745391      2.78595627997631     -0.81216070098424
  H           2.05486078199915      4.86679424955623     -0.02044381171054
  H           3.78969665565224      4.77454094672023      0.55933757673483
  C          -0.19305835650903     -1.08655626881607     -3.72699625583343
  H           1.51872210525444     -1.33486067568305     -2.41886128526868
  H           1.80244335332958     -0.25975734036177     -3.78489463165306
  H          -0.92907710667036     -1.39139549274108     -2.98713994438938
  H           0.04739559017660     -1.93851654648129     -4.35735621487951
  H          -0.63541116511557     -0.30699994259065     -4.34165521865281
