16
Coordinates from ORCA-job NEB_product E -36.771993398600
  C           0.71697060595836     -1.27342380414336      0.00082899292837
  C           1.34988866547202     -0.67492048491915      1.22269200596970
  N           1.76837319769724     -1.98571097653848     -0.80524183297069
  H           0.29045855437531     -0.49741763670193     -0.64685371837219
  I           0.06461587713505      0.81145550430746      2.13559501441304
  C          -0.40864053718514     -2.27062020564882      0.39647692751989
  C           0.08528844349958     -3.42770644751579      1.21332956302376
  C           0.12109667303056     -3.40927731159481      2.53227608672015
  O           2.39849282386592     -0.92346325363281      1.69403531048627
  F          -0.97440658074862     -2.71360142552309     -0.77298974843319
  H          -1.19344546666776     -1.71202065984286      0.92612336293497
  H           0.41481346970682     -4.28416144162047      0.64540072359145
  H           0.49181560147258     -4.24924196371971      3.09087084936913
  H          -0.21342880289080     -2.56112022089127      3.10862311171091
  O           1.97604158045427     -1.53186164291708     -1.89772130759083
  O           2.31356589482462     -2.92220802909785     -0.29294534130076
