16
Coordinates from ORCA-job NEB_reactant E -36.764357405910
  C           2.00494147119783     -0.08271820389619      0.02252034241056
  C           1.24927945696206     -0.73134036316403      0.92939099132236
  N           2.35180437696585     -0.63647681067038     -1.23731997321077
  H           2.39645377427788      0.90466671408103      0.19665167345104
  I           0.85217432198170      0.29365348849417      2.75379908202287
  C          -1.11404399866466     -4.85407744988062      1.65851962298381
  C          -0.36990205776109     -3.94449433661491      1.05967843942469
  C          -0.02864196401909     -2.61954579879208      1.66889691755112
  O           0.77093244946391     -1.92582987773532      0.73259517435841
  F          -1.39174843030997     -6.02288989445482      1.07540968496333
  H          -1.56493506814571     -4.77179387433280      2.63796165640421
  H           0.03858779672033     -4.11816692487238      0.07543451151346
  H           0.52674648814041     -2.75178750428500      2.60882143112193
  H          -0.93864666297159     -2.04107038219419      1.88453638402004
  O           3.03745977323443      0.06592350766458     -1.95302050182337
  O           1.95843827292771     -1.74745228934705     -1.52557543651370
