15
Coordinates from ORCA-job NEB E -27.243987484010
  C          -0.07510126384016      1.75429365995499      0.39164666418739
  C           0.16620722390960      0.58339822026529      1.21956144519720
  Cl          1.15811618192124      2.17535931813753     -0.74282809931242
  H          -0.56812368696869      2.61376308017277      0.82093617691163
  C           1.08156675688190      0.69922561579106      2.25422124149293
  C           0.80822547395377     -1.22488217988072     -1.41740705174700
  C          -0.49720936561275     -1.05736154865853     -1.34840421501236
  C          -1.26880763644784     -0.74123140451301     -0.09537408996108
  O          -0.44953805548949     -0.59020130092687      1.04518724253614
  H           1.29748284420754     -1.44237101449644     -2.35021479261127
  H           1.44608066726664     -1.15316219297066     -0.55192967898616
  H          -1.12487806079332     -1.13760913601686     -2.22457838016094
  H          -1.94615727784345     -1.56833266063392      0.14149362199143
  H          -1.85460245086180      0.17460849353539     -0.25656724702449
  N           1.82673864971681      0.91450305023996      3.11425716249898
