16
Coordinates from ORCA-job NEB E -25.753800508570
  C           1.17862821462611      0.16229043620344     -0.63003486982753
  C           0.46760479953521      1.37633296076524     -0.46321302572423
  N           0.86174038366324     -0.66550946976812     -1.67956503628886
  H           2.23035923824540      0.14492067352763     -0.36212456023401
  H           0.93924458397891      2.14767093785842      0.15791245291675
  C           0.33890903462517     -0.62421088132433      1.03260505541667
  C          -1.02558434693618     -0.61633571143081      0.73135291905925
  C          -1.68898676082686      0.60158952274055      0.68042161701967
  O          -0.77525382265812      1.42718609379241     -0.68836896140786
  Br          1.21910107063116     -2.32548182921178      1.13537190532310
  H           0.73314575956550      0.04509968400966      1.78486090211090
  H          -1.43112059108445     -1.45715016073038      0.18472442508623
  H          -1.45416612951354      1.36486637432207      1.40776165138625
  H          -2.69940651048778      0.63000620587487      0.30581053338411
  H           1.21187270450282     -1.61141329112833     -1.63095727119105
  H          -0.10608762786661     -0.59986154550053     -1.96655773702940
