17
Coordinates from ORCA-job NEB E -33.289277366110
  C           0.25242964895439     -1.37992176101956      0.14946325606095
  C          -1.11237569357158     -1.12559195405741      0.16153209504085
  H           0.78033239526654     -1.34417760263585      1.08847201647764
  H           0.60706111050790     -2.10960179841217     -0.56297918639025
  O          -1.85742268966297     -1.56440599770363     -0.88103084243311
  C           0.82382905520585      0.41945976330540     -0.47213052512508
  C           0.23944916605607      1.28372919051431      0.44760014036417
  C          -1.18540973348942      1.28228463381524      0.52580178887760
  O          -1.62386857238267     -0.21972323192826      0.93749330869970
  N           2.26809236545087      0.30591607970890     -0.44570681194187
  H           0.44488584788548      0.33892284504735     -1.48516987908116
  H           0.81500039599811      1.53952070209926      1.32496217332084
  H          -1.71069876400000      1.40682139442362     -0.41927509740089
  H          -1.62458457241776      1.87024359125543      1.32201066748357
  H          -2.75736022994024     -1.21699104033479     -0.80935658006804
  O           2.82118640832008      0.38847052877673      0.62543504088543
  O           2.81945386181934      0.12504465714544     -1.50712156477034
