17
Coordinates from ORCA-job NEB_reactant E -33.315996613650
  C           2.36950086901698      0.00985646591167     -0.54624490825038
  C           1.54279372644986      0.60387589840434     -1.39461493761726
  H           3.00896233498947      0.54779988263873      0.12306711444902
  H           2.41601502744130     -1.06025079042470     -0.53301288846165
  O           0.76644570283720     -0.08782318789408     -2.25289791061465
  C           4.09883676206968      2.56142841906760     -1.97094673122444
  C           3.41412167943243      3.08005193132782     -0.95902788960112
  C           1.96868987352235      2.84525180586069     -0.67771528866460
  O           1.32765790035358      1.95303170529588     -1.55054896785949
  N           5.48640381670196      2.86958917296124     -2.15621506143564
  H           3.69927693472339      1.89156423813469     -2.71594563198441
  H           3.92115613409694      3.74663919490415     -0.27185697612231
  H           1.43328511648808      3.79570359368085     -0.79253558603070
  H           1.85050758963963      2.51821089665564      0.36552269429118
  H           0.22787832812965      0.53869197247231     -2.75348466048581
  O           6.02812636511260      3.59265897107316     -1.34791334740754
  O           6.02534183899490      2.37881982992999     -3.12352902298021
