20
Coordinates from ORCA-job NEB E -45.265246090180
  C          -0.71792811175290     -0.41555919744706     -0.22084315173821
  C           0.29848467852777     -1.32578777481296      0.16857490787045
  I          -0.78341282672372     -0.18056896039943     -2.52054248099887
  H          -1.71772807575711     -0.79089694614545     -0.02308538915682
  C           0.02062738204501     -2.75362492180591      0.48662374211956
  C          -0.47998626063825      0.99597319830570      0.41581213016942
  C           0.94294449785362      1.34378580861509      0.23794163612487
  C           1.92885015166029      0.31747291885007     -0.12030606913884
  O           1.61891995831245     -1.01743628970153      0.10764151672170
  C          -1.42316954630876      2.11198284519698     -0.06685419381956
  H          -0.73570776907431      0.84454835910978      1.47485919036194
  H           1.18323681897936      2.34035020061882     -0.09631536875763
  H           2.89968729030834      0.48339443039876      0.36000401266834
  H           2.09860528581462      0.43289352907637     -1.20859332067210
  F          -0.03603313119969     -3.55726232053050     -0.59904613812169
  F           0.94080822401249     -3.28468499116177      1.29623140763840
  F          -1.17279204974772     -2.89295353587201      1.09660889605516
  F          -0.91712949058899      2.77650802218961     -1.14975323301592
  H          -1.55052220175296      2.86180839921664      0.72024823420779
  H          -2.39775482396953      1.71005722629884     -0.35920632851802
