20
Coordinates from ORCA-job NEB_product E -45.315747792980
  C           2.08483073765624      2.38117183663653     -0.89525763486288
  C           0.79583824779870      2.35865484633498     -1.65273057458573
  I           1.69341224572843      0.82325990711317      0.57059547330836
  H           2.92340776302905      2.02089747386929     -1.49225878638600
  C           0.82351506375756      1.41027775275090     -2.88482406768609
  C           2.38390197512609      3.71825168251366     -0.22671448461356
  C           3.56027136388223      3.60659472540952      0.70076012774413
  C           3.50963566853771      3.89614450845198      1.98644434359037
  O          -0.17985672365953      3.00617980074528     -1.40981682027027
  C           2.67749690576161      4.75359167428611     -1.32428035115140
  H           1.50155498009902      4.05220577690205      0.32953652317783
  H           4.48091194820528      3.27452245155552      0.23873837152941
  H           2.60236588980164      4.23599118794928      2.45732103725606
  H           4.37473491228883      3.80863928757942      2.61956445203900
  F          -0.38682125207676      1.11459581205938     -3.33422726137144
  F           1.49233740740521      2.03560060309025     -3.87377479145491
  F           1.47334180562077      0.26332260243605     -2.65609070322607
  F           2.86366418356494      5.98108163264362     -0.75474997821790
  H           1.83976495267123      4.85069260901673     -2.02324163567781
  H           3.59729192480175      4.51132382865628     -1.86899323914110
