18
Coordinates from ORCA-job NEB E -29.304614733090
  C          -0.21164437566011      0.75422143948972     -0.89232565719426
  C           0.36418631430569      1.25885365604508      0.26958868868227
  C           0.65320045433386      0.01302374250711     -1.87115194692609
  H          -0.99291107855161      1.36488958390930     -1.33079420060742
  O          -0.28749624376924      2.27195869890915      0.91094451955137
  C          -1.22644662037319     -0.69830093682777      0.09805885573023
  C          -0.21600139998717     -1.41385180704036      0.71291025194818
  C           0.54981587579250     -0.71956189561485      1.69105136809130
  O           1.23920472951957      0.58197252118931      0.93712572159169
  I          -2.44727318886593     -1.66793300684293     -1.34134230649194
  H          -1.83031335449505     -0.01507045337374      0.67944180990778
  H           0.23734001677229     -2.24603116462865      0.19672104632600
  H           1.41726538950623     -1.23401281776799      2.08393741021448
  H          -0.01557043706048     -0.20351119003600      2.46368903975113
  H           0.06990259467922     -0.67357558717127     -2.47972578487528
  H           1.43424309557500     -0.53563043425359     -1.35086609482386
  H           1.12566223664408      0.73034474607700     -2.54199899781034
  H           0.13683599163432      2.43221490543048      1.76473627693476
