18
Coordinates from ORCA-job NEB_product E -29.350749028180
  C           0.87449146092732     -1.21175203891606      0.52714825719655
  C           2.32823476231144     -1.47279099105894      0.91731562042604
  C           0.78094421670961     -1.06252292853464     -0.99045363777822
  H           0.52268744944642     -0.28422151461375      1.00270591399322
  O           2.85992703963019     -0.62511913826110      1.81588621129609
  C          -0.02671357642184     -2.32734427663324      1.06951381991784
  C           0.07670937101535     -2.46099924525711      2.54824672853822
  C          -0.95771481966155     -2.37590308438980      3.36530909224656
  O           2.97583167054112     -2.36949244673180      0.46802095532920
  I           0.42903877270952     -4.26946789645286      0.18451870445040
  H          -1.05826167499785     -2.13221755453386      0.77039066997176
  H           1.07130224064102     -2.65248152867026      2.93069975455341
  H          -0.84867451368214     -2.48164286651100      4.43039844164821
  H          -1.95716605301040     -2.20240136574418      3.00003702331245
  H           1.24428824801337     -1.91684784844063     -1.47803441864727
  H           1.30025972920495     -0.16279552685457     -1.31410084795105
  H          -0.25908193007062     -0.99653447056321     -1.30371325019881
  H           2.24899760669410      0.06153472216700      2.11301096169543
