24
Coordinates from ORCA-job NEB E -43.028594182300
  C           0.40188477013376     -0.61013756473131     -1.04025055306319
  C          -0.67498558413256      0.27425732761377     -0.96724140228892
  C           0.16123824713954     -2.07446165786829     -1.29363178689492
  H           1.26194104225614     -0.20509363902384     -1.56248184186866
  O          -0.41681598659543      1.54637425237341     -1.34764990279268
  C           0.85896009174927     -0.62038526746633      0.97940566471950
  C          -0.18468276597697      0.01194749520428      1.64527138987253
  C          -1.49678082795262     -0.41299550012250      1.29630321043385
  O          -1.73195822975036      0.03638174289375     -0.26597971365034
  C           2.23509006747772     -0.05834986982017      1.10342640627884
  H           0.85179610176358     -1.70499824889659      0.98139103690239
  H          -0.06166435116665      1.05119206757219      1.92836675626892
  H          -2.32262774774163      0.09252997795607      1.78149210875433
  H          -1.64821877877135     -1.48658531250177      1.23164686016997
  H          -0.70536760700722     -2.43706988247578     -0.74684977125601
  H           1.03476718069403     -2.66928132072206     -1.03435695256626
  H          -0.02729829702103     -2.21892314317215     -2.35760315924631
  C          -1.38379668717498      2.53244186687012     -1.03547782044876
  H          -0.99380220021992      3.46318151931904     -1.43935403481325
  H          -1.52003933513081      2.62289860586935      0.04431911383117
  H          -2.34399280686282      2.28977796399375     -1.49683380288029
  Br          2.84401147495547     -0.17479915063214      2.98612684625917
  Br          3.52794856599112     -1.05883100836140      0.04174715943386
  Br          2.33439366334373      1.81092874612858      0.56821418884506
