24
Coordinates from ORCA-job NEB_reactant E -43.054617726800
  C           2.39771797528944     -0.09547365586265      0.32170052122390
  C           2.20834566330593      0.94663727022790      1.12118201409318
  C           1.61932334182996     -1.36549407733056      0.38734464472553
  H           3.17121525439663     -0.02014668685870     -0.42652882624477
  O           3.03762617760851      2.03823676108335      1.07647209837714
  C           3.95935441838284      1.44989588667912      4.03558853963476
  C           2.68556579048270      1.74567886887205      3.83054421402561
  C           1.67360934086244      0.73096605873538      3.39803609289497
  O           1.21183873435435      0.98985561894146      2.07629685884759
  C           5.03224590740822      2.40769283659387      4.36721470413690
  H           4.31203944957191      0.42848305264681      3.95093986904055
  H           2.32328130610875      2.76258799918839      3.89800134430070
  H           0.77900343378972      0.79261671081254      4.02383923922546
  H           2.09503116388919     -0.28141308207743      3.45420978774295
  H           0.84126238911904     -1.30135152190818      1.14289824431493
  H           2.27927294941054     -2.20175391717206      0.61809479820744
  H           1.15655021759436     -1.56721933598657     -0.57743725037213
  C           2.39058350875354      3.29020177255176      0.89997003363521
  H           3.11145794376542      4.05443405389075      1.18465080292851
  H           1.49717039503092      3.36794869833662      1.52407264856889
  H           2.10703784621254      3.42369507038770     -0.14814678899559
  Br          6.46110528293066      2.27381237533149      3.01714947375232
  Br          4.47531612460512      4.25902595174242      4.44821755873157
  Br          5.81504538529723      1.94298329117455      6.12378937720436
