24
Coordinates from ORCA-job NEB_product E -43.096397363950
  C           3.05835883581751      0.77766950610490      1.48530632189513
  C           2.09816642743809      1.95149862191042      1.33348329336383
  C           2.33524000511344     -0.50390603759546      1.06962837944378
  H           3.90242791190041      0.95458626524671      0.81118908707602
  O           2.66339518335426      2.92751098952377      0.62320107391205
  C           3.58527542395788      0.62936472136483      2.92788470794019
  C           2.47334714079831      0.35651144612468      3.90372835714694
  C           2.52383067446556     -0.60399046485477      4.80752131992350
  O           0.97634202105026      1.98704484753354      1.76330668806526
  C           4.39425162671020      1.82929946963399      3.41179231642821
  H           4.28030032613001     -0.22302702287799      2.92878890241964
  H           1.61296062317576      1.00608668592585      3.82564261496235
  H           1.71622652654281     -0.76498113049481      5.49958425791278
  H           3.37016280255887     -1.26634082706173      4.89796857504431
  H           1.43706420705948     -0.63742153136760      1.66759011680289
  H           2.98277662452558     -1.36690535717517      1.20531526051288
  H           2.04888587700503     -0.44550343427069      0.02256512496856
  C           1.87106481118827      4.08557357905367      0.39241364550373
  H           2.45398730592732      4.72445858117176     -0.26501043586490
  H           1.66534557358060      4.59292773630364      1.33747602077899
  H           0.92456612415075      3.80686349979489     -0.07359132556183
  Br          5.27951676310726      1.37354387768900      5.09942251761369
  Br          5.81027364772050      2.32252238284147      2.15509634580855
  Br          3.32433353672183      3.41411359547511      3.74929683390345
