23
Coordinates from ORCA-job NEB_product E -40.411907669580
  C           3.05948831735486      1.53149025073628      0.20950853332868
  C           2.41076391946867      2.51855095116431     -0.70884693068528
  H           2.26022053868401      0.87671323209484      0.57161246609038
  H           3.74877584753644      0.90781391318696     -0.36058828753853
  C           2.13477343012272      1.95223427232731     -2.13118872241295
  C           3.77297459133385      2.14887532091008      1.42883989704274
  C           2.77695944123587      2.76817756977544      2.36723005690384
  C           2.53994760389361      2.32457803396849      3.58677012754106
  O           2.11424918483312      3.64989919390331     -0.46841798731472
  C           4.83372699891276      3.18509154559961      1.03161393061279
  H           4.27501653275999      1.32392638010194      1.94746671776471
  H           2.25094986153630      3.62832054799433      1.98009705032596
  H           1.82301681680446      2.79693032177924      4.23614658117256
  H           3.05700541928318      1.46937345829745      3.99256891336000
  Cl          3.71084440857194      1.90028174531177     -2.96331313585671
  Cl          1.45451365169752      0.31678126191725     -2.07555089474016
  Cl          1.03929475742278      3.01225617894514     -3.02633907290455
  C           5.96316517742019      2.59778695796522      0.19320049433439
  H           5.25167154575562      3.59834980573398      1.95236849758523
  H           4.35909580871004      4.00360478524115      0.48999048811756
  H           6.40095315260960      1.73396861817286      0.68970620839942
  H           6.74439089978830      3.34076246409471      0.05271310874712
  H           5.61210209426419      2.29363319077834     -0.78938803987356
