23
Coordinates from ORCA-job NEB_reactant E -40.403042269030
  C           2.64745714809409      0.92768537698702     -0.57962554008733
  C           1.62065669251933      1.76588820034787     -0.53278005893000
  H           3.33443150397839      0.82911803639081      0.23832969981875
  H           2.83068030713589      0.32575082936561     -1.44737106995851
  C           0.64956287974257      1.97049258074109     -1.66933977421630
  C           4.52426687152568      2.71721664463513      1.97455815532180
  C           3.40547847593424      3.18594764386792      1.44830881639371
  C           2.04754463702653      2.58608004347270      1.66400259506667
  O           1.25370070195863      2.57834179063041      0.48727690886067
  C           5.87748896280025      3.31435006032582      1.76567240820849
  H           4.49898059478330      1.83142392012625      2.59834263699694
  H           3.41305522785289      4.06643929734363      0.82057256836184
  H           1.47095884315624      3.20879863893763      2.35696895057449
  H           2.12298369613906      1.57345222432778      2.07953932444150
  Cl          0.79677153068071      3.65164574806973     -2.24951009118163
  Cl          0.92079465230061      0.89007699241144     -3.03208304866825
  Cl         -1.01449390211734      1.72423931931458     -1.08329424982290
  C           6.80921396709656      2.31945060375472      1.07272864325240
  H           6.30318436724701      3.58425273765692      2.73603767130111
  H           5.79391961089962      4.22130586697983      1.16528757574986
  H           6.91127055993629      1.41346321513608      1.66611348861857
  H           7.79573903623183      2.75543040980579      0.93746636951773
  H           6.41315363507764      2.04974981937124      0.09629802038040
