21
Coordinates from ORCA-job NEB E -46.495634901550
  C           0.36085001048321     -0.53801485561040      0.92553566410429
  C          -0.94827187951231     -0.98107939127844      0.61862915644175
  C           0.48095333624700      0.38541892200342      2.01108500713781
  H           1.13730760399102     -1.30081931989443      0.94271118181604
  C          -1.07744478866021     -2.31084527017492     -0.10956332806164
  C           0.74574050006426      0.54925566592756     -0.56862175140192
  C          -0.33339861500096      1.44581989506316     -0.54460394070410
  C          -1.64896660017890      0.93380570169383     -0.73174544194826
  O          -1.90585558210902     -0.12118090581093      0.46910407394253
  C           2.14898686393824      1.08650520187542     -0.39164463509662
  H           0.72731466631273     -0.23324639362754     -1.32315355223711
  H          -0.20927622451425      2.37037970807359      0.00131421766257
  H          -1.79803289664566      0.29222350459837     -1.59744930412877
  H          -2.46046842811887      1.63749908506604     -0.59163065022606
  N           0.54913672070355      1.09357289787969      2.90443859321900
  F          -2.30456624556134     -2.81888949221977     -0.04758253570072
  F          -0.77979411484349     -2.19131955252509     -1.43224574451182
  F          -0.22771196066223     -3.23239151204560      0.36760318464527
  F           2.17922929833265      2.18153088327169      0.42309537575964
  H           2.53661839015240      1.40793574103361     -1.36677956361789
  H           2.82764994558215      0.34383948670072      0.04150399290600
