19
Coordinates from ORCA-job NEB E -41.176182454700
  C           0.10691171150337      0.30713245492942     -0.86311674673336
  C          -0.10028452922319      1.72971591814080     -0.98704141630223
  C           0.24089478965405     -0.54324319268634     -2.00422607365737
  H           1.01746386827449      0.17071000839779     -2.40373568640470
  O          -0.00778976178932      2.17174022403253     -2.26522047405989
  C           0.32072937017562     -0.23041417908769      0.52553920531549
  C          -1.06200894826600     -0.44090989123710      1.09716844708545
  C          -1.51025086582080      0.22546355808430      2.14453006790182
  O          -0.35882654768524      2.46518012942083     -0.06095616205069
  C           1.14094984206028     -1.50939637298066      0.62703130575439
  H           0.83158628176953      0.54112521523027      1.12024270349879
  H          -1.67288840175547     -1.16518949749953      0.57674917297194
  H          -0.91519122002306      0.96810107685139      2.64856106554087
  H          -2.49848353467329      0.05157664666191      2.53298949353782
  N           0.07118761894046     -1.59908351761662     -2.53919327878863
  H          -0.24265424518989      3.11060018579107     -2.30187832674122
  Br          1.48802723079878     -1.87202739867657      2.51453925316724
  Br          0.27522668703995     -3.09448622928784     -0.10377688551693
  Br          2.87540065420974     -1.28659513846797     -0.25820566451878
