19
Coordinates from ORCA-job NEB_reactant E -41.260507127590
  C           1.37107459354520     -0.80822729635861      0.30943106294203
  C           1.57865172863087      0.34786926404214      0.96887410341211
  C           1.01292932089237     -2.04303275388495      0.84739623355853
  H           1.47358105656490     -0.77957823758187     -0.76508966209313
  O           1.88630920296614      1.45093190127958      0.27422006934895
  C           2.54855888875819     -2.56050541354493      3.61380800567763
  C           2.56919346334781     -1.25734501301387      3.38850451839609
  C           1.33455518106053     -0.42284195886461      3.23566090628874
  O           1.51643681042976      0.61702150217867      2.29158204530366
  C           3.72952761126567     -3.43011861843494      3.78516371299225
  H           1.61003179391125     -3.09885555764287      3.66820582217501
  H           3.49746821914884     -0.70565579313457      3.31228824688763
  H           1.13741366661666      0.10563268385997      4.17561929214466
  H           0.46456713898727     -1.03560135059432      2.98250423856842
  N           0.72395999087945     -3.08328905697061      1.24404456505870
  H           2.00105592679208      2.19399801749371      0.88304468344800
  Br          3.72286042059681     -4.82984548531666      2.40242919756018
  Br          5.43297511332855     -2.51078110812827      3.68905420592830
  Br          3.63354987227765     -4.30837572538300      5.54755875240224
