19
Coordinates from ORCA-job NEB_product E -41.273684309980
  C           2.18078438890935     -0.62987972425425      1.51053556830427
  C           2.64948199772477      0.74103724734325      2.03021573435960
  C           3.04771767376003     -1.10481319273782      0.45664035214580
  H           1.19209932430130     -0.44954212309484      1.06289464918958
  O           3.34580100910158      1.40154446552279      1.12072610343722
  C           1.98062784176806     -1.60576543891284      2.69171676706329
  C           0.90437833902113     -2.61304370397645      2.38888740689873
  C          -0.06086896942151     -2.91633763661251      3.23593313401298
  O           2.36319611809291      1.16104165230217      3.11503319412252
  C           3.25356634040114     -2.33158058307238      3.12910514394592
  H           1.66689513304783     -0.98231127917447      3.54240343892865
  H           0.97744315649370     -3.09805133908397      1.42441409381196
  H          -0.14482280915339     -2.44581447019930      4.20201236395781
  H          -0.80675303185785     -3.65282049265029      2.99456497975555
  N           3.71949530083941     -1.46813644843690     -0.39179157241337
  H           3.63447841850959      2.26780685114215      1.45176167068639
  Br          2.97407307197750     -3.04033143891259      4.92933955779084
  Br          3.71579948298043     -3.85397981862068      1.99760954609914
  Br          4.80660721350400     -1.14802252657107      3.20379786790315
