21
Coordinates from ORCA-job NEB E -33.370972482120
  C          -0.93329116632437      0.38099746056103     -1.13571396863170
  C          -1.94428704840907      0.84831595159849     -0.30995290211204
  O          -1.13387338565691     -0.76870323363214     -1.84805227702118
  H          -0.30799453356588      1.13787494965745     -1.59827817049008
  F          -1.70535877561044      2.17048199233487      0.07092362213023
  C           0.28698367424067     -0.37314299095044      0.46375398828706
  C          -0.47406216152457     -0.21747265485704      1.60819380680091
  C          -1.75843080207554     -0.77207008492378      1.65696096471370
  O          -2.67259381384963      0.19418511671460      0.45643793897899
  C           1.61274902804754      0.32724482475748      0.32773968028899
  H           0.21352076054016     -1.33246258061356     -0.03555745254036
  H          -0.25918424108358      0.62499032780638      2.25377272900136
  H          -2.37477326721443     -0.59881467623870      2.52560703921944
  H          -1.92533113789936     -1.72025038299285      1.16444200410419
  H          -0.39329058184914     -0.91672488024576     -2.44630924575422
  C           2.37174808537320     -0.04231728819234     -0.94208715717846
  H           2.22590605891455      0.05182309005556      1.19163828697179
  H           1.46337041703641      1.40815760186773      0.37578916532218
  H           2.49190251465392     -1.12154087647138     -1.01489449324143
  H           3.36087386879091      0.40901581990950     -0.93223564914804
  H           1.85541650746554      0.31041251385491     -1.83217790970135
