21
Coordinates from ORCA-job NEB_reactant E -33.404471841490
  C           1.88741332622181      0.19467462952082      0.20734375886777
  C           1.35767621559473      0.74875805523928      1.29419269936291
  O           2.37966506049524     -1.09013797163335      0.15953395399156
  H           1.90465162980658      0.77805979885808     -0.70089807300208
  F           0.85161532048711      1.99618926221831      1.15644037379061
  C           4.52686600163903     -0.80931388827762      2.54154409929679
  C           3.49963376552037     -0.15950778629135      3.06072833886437
  C           2.08789832538583     -0.66285090903426      3.03949487601375
  O           1.18004481650444      0.32364531182019      2.55377177275165
  C           5.93554527838815     -0.31060851001120      2.53234103303648
  H           4.36793277205488     -1.76933473339201      2.06724971502483
  H           3.63129086384766      0.80808280199649      3.52689045119630
  H           1.73368095720846     -0.86133426162580      4.05579314861153
  H           2.01192793415589     -1.57548738147221      2.44068054838022
  H           2.95167566490814     -1.17727979598923     -0.60901156167623
  C           6.43717210991030     -0.13166703942213      1.09902763501646
  H           6.57578811088271     -1.03348168144937      3.04543467583192
  H           5.99827963265778      0.63919538543165      3.06561964217260
  H           6.39202835065548     -1.07488753552231      0.55881579287515
  H           7.46669484912254      0.21782349190539      1.09701272164823
  H           5.82371901455286      0.59786275713064      0.57489439794517
