21
Coordinates from ORCA-job NEB_product E -33.428548973560
  C           3.03322945996203     -0.10466027319334      0.72941156541124
  C           2.42027208772931      1.21247962128027      1.11500966268598
  O           2.02951277593502     -1.02348719175293      0.40293042197595
  H           3.63898599652307      0.02175998095007     -0.17249169325381
  F           3.28700639080457      2.25032053577609      0.94053599744474
  C           3.93245985220228     -0.64564889696880      1.88797281004477
  C           3.11565490794226     -0.70403652970055      3.14724359017833
  C           2.48830746046847     -1.78669196879210      3.56871163822082
  O           1.33919624988570      1.42118657551744      1.54137290330541
  C           5.21537480791027      0.16243777611302      2.10521243840482
  H           4.19630919319636     -1.66432113966729      1.58312122002611
  H           3.04061687021961      0.22422438306429      3.69887052649000
  H           1.89555505959732     -1.78763054650047      4.46718989994078
  H           2.54838951341148     -2.72076872124855      3.03353714986399
  H           1.38918036016231     -1.05832971503081      1.12664675238057
  C           6.14599443422188      0.17153425304527      0.89768042064548
  H           5.73809772953800     -0.29011245925072      2.95159722656559
  H           4.97139014886279      1.18880624134251      2.38377348830165
  H           6.31964265904683     -0.84024058234123      0.53793518527115
  H           7.10357273776694      0.60499212725589      1.17478308288242
  H           5.73575130461350      0.76648653010193      0.08595571321400
