24
Coordinates from ORCA-job NEB_product E -55.165965454860
  C           1.41519521047449      1.48655549523637     -1.31839086194528
  C           1.00272881723729      0.04529674429406     -1.52095208653301
  C           1.35435102892971      1.82934096047913      0.16138573677237
  H           2.45108945688062      1.63946706288648     -1.64414616855145
  C           1.96666659455420     -0.83205596732337     -2.34196197348555
  C           0.55914849895628      2.40524142743994     -2.24841211280603
  C          -0.83610374617182      2.65602782363274     -1.75119818319435
  C          -1.88418242183173      1.96103604767000     -2.15267161412600
  O          -0.03662050804478     -0.40426466104840     -1.13937563770250
  O           1.31441705291710      3.58786937124645     -2.38239741881204
  H           0.50266108405534      1.89486065664636     -3.22560303955923
  H          -0.93701678165317      3.47818211805375     -1.05529730377889
  H          -1.79463865281389      1.15052599889314     -2.85706562386757
  H          -2.86961090671655      2.16146239765302     -1.77156867475551
  Br          2.69542057826638      0.73442342008991      1.08630502926426
  Br          1.80335058618915      3.67970169330669      0.48373626556357
  Br         -0.32926388947216      1.46389157500329      1.03878473593875
  Cl          3.67581241466770     -0.56674463944261     -1.96757710224031
  Cl          1.56416923084046     -2.53817632479898     -2.11908199287159
  Cl          1.66096048423540     -0.36535485977649     -4.04057095673041
  C           0.87668426569932      4.42956857601001     -3.42232252078600
  H           0.94168456805520      3.91759638610621     -4.38944300110020
  H           1.54547704817121      5.28669854492776     -3.41231545320880
  H          -0.15338001342575      4.76325015281453     -3.26376004148426
