24
Coordinates from ORCA-job NEB_reactant E -55.175273906870
  C           1.88663869155840      0.30814954737118     -0.24639666331610
  C           1.08836372840700      0.18868848482768     -1.32552164901496
  C           1.55644034166186      1.27595460047916      0.81245107523674
  H           2.76028440232671     -0.30481646871412     -0.11396709854292
  C           1.39842387416332     -0.79870237390852     -2.42344349258251
  C           0.12894026484257      3.15197894171899     -3.89018263241310
  C          -0.51786270636727      2.74741716813454     -2.80052259549114
  C          -0.77946316218660      1.30522828456878     -2.50765264159343
  O          -0.01893766278377      0.92694148709619     -1.34290950431131
  O           0.45925020489706      4.40267008701992     -4.24456509184934
  H           0.44571599171860      2.45536545780238     -4.65617459286335
  H          -0.83275011884596      3.43672847789242     -2.03476664613246
  H          -0.55274758184674      0.68118177291089     -3.36901811045686
  H          -1.81996051248514      1.15101410325641     -2.20546438743041
  Br          2.88952642540427      1.25872161277692      2.22017843431051
  Br          1.45773302408734      3.10569359531910      0.11540684613737
  Br         -0.19368033143857      0.89562749080178      1.62886216886238
  Cl          1.93104013195133      0.06918424309716     -3.89628987307935
  Cl          2.69500218687819     -1.92601988461402     -1.98520930643151
  Cl         -0.05045576822440     -1.78209727442172     -2.78524624986398
  C           0.16398639269535      5.44367341077802     -3.33688503619204
  H           0.55458737124375      6.35323209076509     -3.78837015847053
  H           0.64877006533477      5.27185383316707     -2.37120280258161
  H          -0.91514525299209      5.54123131187470     -3.18910999193005
