20
Coordinates from ORCA-job NEB E -41.281291557720
  C           0.49566791553014     -0.65215903771500      0.44913540550930
  C          -0.40928048751371     -0.20113399915503      1.56876641759271
  Cl          2.13138733088973     -0.21319268832878      1.04189075559037
  H           0.48878355034135     -1.73746826165981      0.33551434945962
  C          -1.00254642125538     -1.35838992658571      2.39957309450064
  C           0.17190124769520      0.02776853707870     -0.88915527913295
  C           0.20339792714371      1.52344861784414     -0.77763256939705
  C          -0.79561187513770      2.31141644827102     -1.12394066316742
  O          -0.68382727068890      0.93208159550565      1.82193868652894
  C           1.14595086441084     -0.45387561916674     -1.98249700803460
  H          -0.84755118407929     -0.28435345719102     -1.14155898832365
  H           1.13475687155192      1.93766302574466     -0.41880126986922
  H          -1.73320005619205      1.92024629343545     -1.48412863887942
  H          -0.72218206089196      3.38228562141213     -1.05330266732279
  Cl          0.26462162411491     -2.46652297259287      2.94918693621243
  Cl         -1.90649437971181     -0.74635998902767      3.78299219342461
  Cl         -2.10712710885092     -2.21528338609340      1.29253346069610
  H           0.60958218485365     -0.95757741415399     -2.78089590670035
  H           1.88458724456269     -1.13990450859615     -1.57761605658885
  H           1.67718408322759      0.39131112097443     -2.41200225209842
