20
Coordinates from ORCA-job NEB_reactant E -45.593534829470
  C           1.65017982682529      0.43145060061019      0.15561007746908
  C           1.12126952972291      1.60711835069553      0.51126212114866
  C           2.42672835006852     -0.56170582180485      0.94198273798774
  H           1.46832338748099      0.09670163497971     -0.85381946674319
  C           0.30262016122432      2.38622439011635     -0.49909755958260
  C           4.52207709237549      2.19328581009796      2.85369419338725
  C           3.37947617679594      2.69190385702926      2.41867097246209
  C           2.03835631981736      2.09027061319944      2.71933689953852
  O           1.12192498288696      2.31022976715888      1.65353878559124
  Br          6.17642771800601      3.01953204695436      2.50198703275204
  H           4.60797575906787      1.29390267969927      3.44109991651351
  H           3.35359063368356      3.59798760471781      1.82948207538442
  H           1.58255155565285      2.63206153556072      3.55690908532961
  H           2.11593849237882      1.03935412601523      2.99933032363730
  F           3.64256367127563     -0.13201573629349      1.34815131910381
  F           1.80469001303679     -0.97723077392486      2.06949037945596
  F           2.65202732467114     -1.66425345286326      0.22054067656286
  F           0.03316811488960      1.66457025399539     -1.62141564355271
  H           0.84861464487451      3.28444519498970     -0.81020077501698
  H          -0.65250375473455      2.67636731906662     -0.04895315142861
