20
Coordinates from ORCA-job NEB_product E -45.596824698380
  C           2.39385321010425      1.29534824830242      0.59720629197551
  C           1.06383800686381      2.02993224638113      0.32494072782498
  C           2.10077185968892     -0.18439070236742      0.84496491030119
  H           3.03260416812626      1.33505333818328     -0.29232710001477
  C           1.01903165991367      2.66273789449244     -1.05039196254102
  C           3.15607951192762      1.88530885127335      1.79327304986897
  C           2.42245681452888      1.86133828024283      3.08683060587316
  C           2.95033218575142      1.36177394021717      4.18987028957189
  O           0.18034865233370      2.08446111939960      1.12515126038642
  Br          3.60168420984665      3.76429986259801      1.31967511471556
  H           4.12712823765182      1.39070577683342      1.88616710050510
  H           1.43041626309086      2.28864893760044      3.08094355463710
  H           2.40467943675920      1.35534717568829      5.11614384580555
  H           3.94031258540919      0.93454917347410      4.20982595732429
  F           3.23006702165587     -0.86541926395193      1.09859981227189
  F           1.27394714819060     -0.42009563951170      1.85718176062971
  F           1.55938081913280     -0.74253925253251     -0.24891922121509
  F          -0.17552217654101      3.27227988989260     -1.27109177451458
  H           1.14897539005871      1.89343303424330     -1.82256607276663
  H           1.80451499550680      3.42492708954119     -1.14047815063921
