22
Coordinates from ORCA-job NEB E -51.309587109180
  C          -0.43481896715414      1.67600009892405     -2.33835292920532
  C           0.56894463552037      1.67787391736782     -1.38288256964175
  C          -1.43633599609079      0.70263977041474     -2.46021600824818
  H          -0.54916412268017      2.58681954142006     -2.90548052283732
  N           1.58738474857763      2.36159048541553     -1.08022015156898
  C          -0.02350784826232     -1.48579139913363      1.48349987998838
  C           0.73219962314056     -0.43988758105113      1.78629922460337
  C           0.82688998680248      0.78739121180630      0.94382879518842
  O           0.38529266605999      0.51215313810503     -0.40116283866756
  C          -0.11755709701637     -2.73426043966695      2.28342929320198
  H          -0.64933577196788     -1.51037445313076      0.60137017918078
  H           1.31485965233884     -0.41622116104013      2.69466590235249
  H           1.84297161497268      1.19288035226153      0.91781624583497
  H           0.15233468614090      1.56359241839073      1.32118069194628
  Br         -2.72243044322408      0.99425383469519     -3.83626238651215
  Br         -0.87652847172556     -1.17938921618965     -2.48507017204892
  Br         -2.75649488187631      0.67280407009861     -0.46330395729593
  H           1.79645245654887      3.15090622912350     -1.66959920036876
  H           0.85923873984458     -0.27174984768927     -0.74951614683125
  Cl         -1.83165478671799     -3.11579313781571      2.59243898505497
  Cl          0.59733506572280     -4.06718399567030      1.31576165076229
  Cl          0.73392451104591     -2.65825383663557      3.83177603511216
