14
Coordinates from ORCA-job NEB E -27.008677959160
  C           1.20516984979029     -0.79918130818432      0.11075726539916
  C           0.54579862698361     -0.85690150068316     -1.12977289504976
  Cl          0.73873554537000     -1.93699812001780      1.36001231044267
  H           2.27990630593159     -0.65139447748472      0.11667349996908
  H           1.07499661235706     -0.42340639255232     -1.98690610308259
  C           0.47255889602640      0.83759087806052      0.76127108784162
  C          -0.90819548119897      0.59974324293189      0.72292467345665
  C          -1.50425572859087      0.38445810470790     -0.53432694562751
  O          -0.72748496727366     -0.97088417831019     -1.18404385341824
  F           1.05023849469705      0.97913544191568      1.96855049666827
  H           0.93006061683299      1.53320782538444      0.06018013955958
  H          -1.35224432651156      0.15732789955860      1.60219122652589
  H          -1.26943216660570      1.08611535566838     -1.32743493951801
  H          -2.53585227780821      0.06118722900511     -0.54007596316681
