14
Coordinates from ORCA-job NEB_reactant E -27.046335910230
  C           1.99639829882549      0.11186773326614      0.00769031785671
  C           1.24231087511779      1.20056965762276     -0.09122536480393
  Cl          2.45987373130466     -0.55459545041513      1.52309312803403
  H           2.36157913267080     -0.41595505280564     -0.85451807182030
  H           0.97661821393293      1.58286802250918     -1.07087104205977
  C          -0.25189627539898      4.86888815154480      2.33376415648421
  C          -0.44713841072395      3.60517023103354      2.01249196336135
  C          -0.01729911835353      3.01411934573184      0.70926589112065
  O           0.77660394459391      1.87555007191803      0.98480231954750
  F          -0.66590509050483      5.37123112166055      3.50345438720274
  H           0.21982423196162      5.62056015577350      1.71632931773001
  H          -0.91853525713767      2.92924202185097      2.70938570004222
  H           0.55209094444692      3.74698900001921      0.12104793726281
  H          -0.90582522073517      2.71449499029025      0.13098936004177
