14
Coordinates from ORCA-job NEB_product E -27.046101666650
  C           1.46778303661884      1.69026178162657      1.21188288658445
  C           1.20489072858528      1.28590293698325     -0.21982836583236
  Cl          0.61727634508066      0.59512060516938      2.33625208833795
  H           2.54037067744508      1.59595830952487      1.41514535944797
  H           1.77835094126409      1.91157149469112     -0.93442549482241
  C           1.05735140553160      3.15839818600452      1.44442324513737
  C          -0.42389325597507      3.30637006824874      1.63247898300124
  C          -1.27521298151789      3.39934037817945      0.63017969168718
  O           0.48506309654856      0.40894767657774     -0.58191472389642
  F           1.72522878680553      3.62904064952106      2.55100022730245
  H           1.41756949629984      3.76283934993238      0.59891897958823
  H          -0.74639101646686      3.30779744169886      2.66261345267774
  H          -0.95245158490678      3.39028601423987     -0.39841225433232
  H          -2.33413567531287      3.47826510760220      0.79868592511892
