18
Coordinates from ORCA-job NEB_product E -42.938001160480
  C           1.59122789640281     -0.16411845453765      2.12141906573611
  C           1.38132761483860      1.04486673065740      1.25681974056500
  C           1.18192263982439     -1.42828730976583      1.37080873986934
  H           2.65807288140623     -0.25039852538343      2.36268680175444
  F           1.99252885529237      2.11902054198196      1.82500379827872
  C           0.83293951848248      0.00956349277373      3.49997328632458
  C          -0.65090493125336     -0.13725495633235      3.30253209589343
  C          -1.45453213572053      0.87400604892543      3.03549201618448
  O           0.78819826223450      1.17113249312919      0.25051170345885
  O           1.35913082945221     -0.84804413787660      4.46067380396238
  H           1.07109164942359      1.01877878118494      3.85546510982441
  H          -1.03293124284844     -1.14575738360999      3.39111910879140
  H          -1.09058268475058      1.88446665260711      2.94763729342819
  H          -2.51018093187195      0.73052897240591      2.89049185866262
  F           2.01293111165009     -1.67600528847837      0.35199068922572
  F           1.22972112445025     -2.51082859946515      2.16892514685202
  F          -0.05295032866758     -1.39107585975579      0.87191896189382
  H           1.04178987165492     -1.75009319846053      4.32273077929448
