27
Coordinates from ORCA-job NEB E -46.187612288940
  C           0.06730090679815      0.69865982374287     -0.35356555008066
  C          -1.06580495014682      1.38666739417685      0.25225676379297
  C          -0.17186037373438      0.32188490513717     -1.82574961726954
  H           0.99893954085391      1.26011282187530     -0.26356417008212
  C          -0.88833346307835      2.52965440681381      1.12326662881011
  C           0.27580909313368     -0.67798489954924      0.54033125914639
  C          -1.00301634692440     -1.35686003564759      0.58535616071793
  C          -2.11884330506606     -0.64324841035188      1.09312764312446
  O          -2.20144542337521      0.76273363142638      0.32508626414794
  O           1.30883379308061     -1.40082345812122     -0.05944542672515
  H           0.59219527260652     -0.29000225303766      1.52180810459373
  H          -1.14849415084911     -2.19226469963620     -0.08176449354317
  H          -2.01517374823147     -0.26902020620413      2.11222645105658
  H          -3.09268428853440     -1.08917425397793      0.92343864872477
  C           1.12824891000739      0.25056953512524     -2.61287450109851
  H          -0.81831969598120      1.08375540051335     -2.26891783457044
  H          -0.69731548352931     -0.63010858283368     -1.88549608877073
  H           1.63749635089370      1.21178427511068     -2.59744334004598
  H           0.91882517992727     -0.00918611458679     -3.64751426601794
  H           1.78321490290468     -0.50297231282199     -2.18727707592152
  Br          0.38400167270051      3.82714907190478      0.54345151189728
  Br         -2.54148493390611      3.35268582394786      1.61226733781438
  Br         -0.06102878532546      1.79330237461203      3.08118100736505
  C           2.03361698241789     -2.19640576531494      0.84870365296090
  H           2.47252121198226     -1.58631824435132      1.64679933775777
  H           2.82654194453551     -2.66997320926143      0.27400626678469
  H           1.39625918684020     -2.96461701869032      1.30030532543078
