27
Coordinates from ORCA-job NEB_reactant E -46.220668250260
  C           1.84204058204224      0.15132322962093      0.00121496039166
  C           1.63713660520165     -0.17212448480116      1.27625641155778
  C           1.16372077673824     -0.46668175295503     -1.17496861000834
  H           2.56233067437062      0.92583983116405     -0.22795443865900
  C           2.35174736494982      0.57907928665581      2.37421283696898
  C           2.52501425664460     -3.35710707199384      3.38047123901126
  C           2.42819936499099     -2.86444159056225      2.14744987990195
  C           1.10628661326798     -2.49280949063020      1.55439422543867
  O           0.76449962774130     -1.10683390717670      1.74399589862141
  O           3.61886448222663     -3.74024147180432      4.05407151833898
  H           1.64174600188934     -3.51473183066991      3.98707553409308
  H           3.29902564636867     -2.67955930130842      1.53590670383631
  H           0.29079738885525     -3.01742828909433      2.05496172709663
  H           1.09162431351051     -2.72750912347779      0.48499307584929
  C           2.15082909544086     -1.27619405698766     -2.01825802428912
  H           0.75538425256789      0.34023793820393     -1.78913678290858
  H           0.33319288527787     -1.09330723688074     -0.84795765551027
  H           2.96684609107730     -0.64287674998445     -2.35853317734748
  H           1.64734519859536     -1.68992857208352     -2.88806750518073
  H           2.57363784195050     -2.09585358475533     -1.44078388325327
  Br          4.28732813543457      0.22877049396519      2.30351756656727
  Br          2.12618878149364      2.51442920708954      2.19582788448651
  Br          1.70913107570952      0.05599995466300      4.11703380266542
  C           4.87198921298976     -3.61756112069778      3.41605160332846
  H           5.60591179166423     -3.99892600160105      4.12278698479117
  H           5.10056597598836     -2.57438557267485      3.18166626475395
  H           4.90441596301232     -4.21037873122313      2.49707195945804
