19
Coordinates from ORCA-job NEB_reactant E -41.557475799390
  C           1.65887148335578      0.02972080614120     -0.02777178391927
  C           0.90466153952699     -1.07994492363417     -0.07707316430631
  C           2.07031614240016      0.73607768777545     -1.26086105841117
  H           1.98114168604949      0.43437620173072      0.91419611021032
  Cl          0.47115815101197     -1.85599938063826      1.40668677157383
  C           0.08993373198495     -4.05582311646999     -3.36026845893074
  C          -0.57008195889517     -3.12552864910102     -2.66935535013482
  C          -0.27700495355161     -2.82026874374872     -1.24169533612394
  O           0.48260943113300     -1.59684253661617     -1.21067372460139
  N          -0.18295771668667     -4.41667275640254     -4.65482035928621
  H           0.84780139844028     -4.66002805215751     -2.87901001843579
  H          -1.31627634394212     -2.51039040213918     -3.14774996056101
  H           0.31475490320581     -3.61871225008683     -0.78137740997043
  H          -1.19799299699501     -2.67371989507575     -0.66542303241660
  Cl          0.65306051849671      1.30419810265739     -2.19564631133771
  Cl          3.07091366168798      2.13870197734471     -0.86827026791358
  Cl          3.01119017952919     -0.33512564704133     -2.34434723492324
  H          -0.73834743371406     -3.76273609696019     -5.18436556461137
  H           0.56294857696234     -4.84778232557781     -5.17447384590057
