19
Coordinates from ORCA-job NEB_product E -41.557980248760
  C           1.57643085173065     -1.41208771647156     -1.38408829590879
  C           1.44074796266736     -1.41052447822934      0.11827483274016
  C           1.20846462853954     -0.04227182357317     -1.95076281563376
  H           2.62227362514301     -1.60514272228753     -1.64677476845257
  Cl          2.51106553148825     -2.60836437636711      0.84684066720545
  C           0.78984468363922     -2.64832324809509     -1.95157811023141
  C          -0.65613426517453     -2.35865222674154     -2.24995884151351
  C          -1.65400804181111     -2.77549529900153     -1.49322677535986
  O           0.72178476167737     -0.76708486828758      0.80095649502121
  N           1.53493699306731     -3.16250464157891     -3.08608321705014
  H           0.83946132710647     -3.41954571031279     -1.17307499489062
  H          -0.84321918938042     -1.83169604255906     -3.17567584500288
  H          -1.48391144919571     -3.30878736577531     -0.57222435175767
  H          -2.68076997958291     -2.58630363039115     -1.75356700468666
  Cl          1.37755025100302     -0.01540789223409     -3.71694269594914
  Cl         -0.42478280193226      0.49623518054459     -1.53618966515750
  Cl          2.36676144646169      1.15402002079951     -1.28513511206357
  H           1.45857721319370     -2.54006882629405     -3.88340630498824
  H           1.17922645135934     -4.07119433314432     -3.35688319632050
