21
Coordinates from ORCA-job NEB_product E -33.229115776800
  C           2.87909257223451      1.45895907669607     -0.94391798983371
  C           1.48903334590227      1.18598509564110     -1.51510008935845
  Cl          2.83682474422213      1.36513051695677      0.82948616193131
  H           3.59484023798376      0.71558739486849     -1.30114102308718
  C           1.52504428697806      0.59879218417667     -2.89550607847968
  C           3.37984846138056      2.86368898600116     -1.35130217824013
  C           2.37006986436523      3.91894200162257     -0.99244726936282
  C           2.48747890683284      4.71322356500411      0.05363106460940
  O           0.48182992353459      1.43954938840519     -0.91392836428639
  O           3.64187422592280      2.81029643735950     -2.74250200591325
  H           4.32080632830048      3.05265444339318     -0.80730683722810
  H           1.51398281487374      3.97059587097720     -1.65046648038447
  H           1.73279775687637      5.43931352812821      0.30041340128851
  H           3.33525025209631      4.65563591020903      0.71680878958094
  H           2.20302530262374      1.18275089896064     -3.51366139870863
  H           0.52612890225500      0.58651280193577     -3.32279404891010
  H           1.90550794316272     -0.41945830495011     -2.84131710406803
  C           4.32772074077719      3.94361789917606     -3.22042168220314
  H           5.29821737170164      4.05326769652302     -2.72251184833894
  H           3.74619178090569      4.85848389788316     -3.06704749910162
  H           4.48063423707036      3.78067071103223     -4.28516751990550
