20
Coordinates from ORCA-job NEB_product E -50.570382461360
  C           2.08966774490254     -1.67984765078682      0.63078372941248
  C           1.00026534806259     -1.38321629533937      1.64701724933259
  C           1.76892066394980     -0.85221214456797     -0.60858608067990
  H           3.06648852358933     -1.34207641654097      0.99577216237066
  C           1.37136348719827     -0.78049092725302      2.99665555099524
  C           2.21945382751054     -3.19090083138314      0.35434450410470
  C           0.98553738330301     -3.91409331943477     -0.05934648736273
  C           0.95990536318276     -4.73013741771341     -1.09916275412846
  O          -0.15549075453956     -1.60499542315574      1.42742942504419
  Cl          2.83202713330201     -3.93427595185961      1.89237429238946
  H           3.01834177255884     -3.34464700453799     -0.37825092794512
  H           0.11284682936094     -3.77736996347637      0.56267594663544
  H           0.06614361121978     -5.26374052157513     -1.36781028656919
  H           1.82404370354672     -4.88737077541209     -1.72415243529874
  Br          1.71801279399458      1.03642835800042     -0.06338623917745
  Br          3.17992036905197     -1.05372454625393     -1.93693961881915
  Br          0.08092577236365     -1.26342157287543     -1.45636854393591
  Br          3.15080860946594     -0.06408919075290      3.19331146126261
  Br          0.08068404788051      0.62908311565103      3.38212040628559
  Br          1.12613377009576     -2.22960152073278      4.28991864608370
