22
Coordinates from ORCA-job NEB E -51.880866510510
  C           0.45830767275832     -0.34345293531189      0.93115822904793
  C          -0.90803919121353     -0.48871105268153      1.23207580196172
  C           1.16177344562498      0.88355505046593      1.46414941851602
  H           1.05460603347217     -1.24629947906823      1.05159890615553
  N          -1.46353911399983     -1.82253963894201      1.16636544492156
  C           0.28782400714683     -0.16242720432055     -0.96752875835413
  C          -0.62671066066136      0.88902308452921     -1.08719415401597
  C          -1.94508560060549      0.73648020923254     -0.51552701375850
  O          -1.74215215414921      0.48991985688172      0.98878137660178
  C           1.63707339770672     -0.02196618232718     -1.63581413354696
  H          -0.08145371200103     -1.17216003199249     -1.13239614845315
  H          -0.25589708605611      1.88518110242064     -1.27561882093392
  H          -2.50266784021349     -0.14389333358877     -0.84283126650213
  H          -2.56290566859527      1.62824481770448     -0.55384134086391
  F           2.51464901068564      0.76053336330467      1.33635222365710
  H           0.96022082850778      0.96298716833514      2.53943223941058
  H           0.86369446250773      1.80999374047701      0.96648484964413
  O          -0.70037164309439     -2.75660295718306      1.32706826423979
  O          -2.65213930691846     -1.91197688079051      0.93591296703886
  Cl          1.36316384716583     -0.35325840266665     -3.38388361513841
  Cl          2.33504140518560      1.59725703118850     -1.50380417919908
  Cl          2.80460786674656     -1.21988732566699     -1.04094029042885
