22
Coordinates from ORCA-job NEB_product E -51.915310246980
  C           2.19873513813717     -0.28346973989516     -2.12733904306896
  C           0.86114269616910     -0.92930931482212     -2.35195206559173
  C           2.02337400213721      0.70902371533511     -0.96363583602095
  H           2.93974441406303     -1.03520345074507     -1.83579231753998
  N           0.83577913137683     -2.45516384060765     -2.05735399668682
  C           2.65669494269454      0.44068597110977     -3.41413644393187
  C           3.82375383576854      1.35366785773066     -3.15642589495598
  C           3.79639957956671      2.64704602922697     -3.41309211011865
  O          -0.17757752349735     -0.41086173810921     -2.59578361988649
  C           3.03009535019639     -0.58640819198620     -4.48723347360500
  H           1.81492939953353      1.02584900426470     -3.80286162679060
  H           4.69953978231655      0.88387654975660     -2.73614538822374
  H           2.92780294825028      3.13112524324585     -3.82916735444653
  H           4.64650015192962      3.27546448157014     -3.21631296359470
  F           3.23952737453371      1.05864881753438     -0.45514491872448
  H           1.46070553870465      0.25107450985983     -0.14315769066443
  H           1.52862246055844      1.62685615603583     -1.29434996305896
  O          -0.22543237825230     -2.98779960178427     -2.21669125347937
  O           1.86357684722630     -2.96000774215054     -1.67937838786161
  Cl          3.40521075263202      0.24500238599972     -6.00883803191856
  Cl          4.42741941701756     -1.57257602425839     -4.01093310602941
  Cl          1.64825613893745     -1.69282107731093     -4.77927451380117
