22
Coordinates from ORCA-job NEB_reactant E -51.906174863200
  C           2.41251311017912     -0.01965633903261     -0.70338239849867
  C           1.53272026331369     -0.51148325691263     -1.57370329909743
  C           2.47672189779400      1.42788039076722     -0.32298768150363
  H           3.13959685784176     -0.69432297863039     -0.27609233398497
  N           1.58720825928516     -1.95853166280516     -1.89021234590829
  C           3.05287895393030      0.39661627104011     -4.38147951311157
  C           1.73944993014820      0.24308071970840     -4.30354072264823
  C           0.91726915066284      0.99355492668188     -3.30117559495871
  O           0.54092369594216      0.11843195964482     -2.22392280031311
  C           3.96424463259111     -0.40318523904109     -5.24000927113730
  H           3.56916407801066      1.12881679467324     -3.77343030571883
  H           1.21818952621932     -0.50530222539721     -4.88197732838852
  H          -0.03489841017152      1.31489523206034     -3.72543335580626
  H           1.46892135191031      1.85731661933004     -2.91784022868717
  F           3.28035656993253      2.11202972584301     -1.21288988114522
  H           2.92342046247654      1.55862288246511      0.66582777541627
  H           1.48885710750152      1.89848024727263     -0.36769868683185
  O           0.95398410740984     -2.31961045279160     -2.84927075776437
  O           2.26756511988303     -2.65725221259066     -1.17791277900881
  Cl          5.07906810130142      0.67606443127633     -6.11712241155423
  Cl          4.93711395924776     -1.46015713434962     -4.15987800944185
  Cl          3.12983127459023     -1.42588869921217     -6.41396806990726
