18
Coordinates from ORCA-job NEB_reactant E -34.741013222710
  C           2.25035620005304     -0.34841302311196     -0.21904634331611
  C           1.58949207418514     -1.49259491589298     -0.45491664515193
  C           2.45600349099569      0.72415643813055     -1.09712359673346
  H           2.68668865740044     -0.20731024191587      0.76036094028759
  C           1.45395316476817     -2.55560138568870      0.60931176261421
  C           3.28649287035682     -1.83056867496525     -3.18576238843465
  C           2.28451509560498     -0.99906437077584     -3.41415830486488
  C           0.95427385942351     -1.08671374559552     -2.72313355306355
  O           0.95037003041046     -1.90572507231607     -1.56839169495506
  Cl          4.79471039911660     -1.70705625119635     -3.99042352550721
  H           3.23850883714474     -2.64598541967448     -2.47997630544224
  H           2.37592906251733     -0.19478001533257     -4.12731147914434
  H           0.22293533258109     -1.55614596748624     -3.39100510870017
  H           0.60004362401703     -0.07850084783117     -2.47802601192337
  N           2.66053112703307      1.63724732156455     -1.76364099674211
  F           2.08560227607635     -2.20664554495617      1.76639417476055
  H           1.89580453676325     -3.49694810169778      0.26257253170942
  H           0.39618936155227     -2.71925018125816      0.84607654460732
