18
Coordinates from ORCA-job NEB_product E -34.739602333850
  C           2.74721319387406     -1.21438561437052     -1.03218991741607
  C           1.48111147164261     -1.80102674762027     -0.40902557175226
  C           2.86359864543597      0.16734500272995     -0.61608339032324
  H           3.61138334470567     -1.75419950737235     -0.62235760031583
  C           1.46291842473602     -1.79194330289212      1.10946603545757
  C           2.72290200272537     -1.34139034899369     -2.56326077070300
  C           1.73443114266687     -0.43360482079896     -3.21284618374205
  C           0.82936548543767     -0.85000115000325     -4.07879247953400
  O           0.56082461296116     -2.22321966680707     -1.05010917936714
  Cl          4.37377459350431     -0.93769221847674     -3.18069676210596
  H           2.53575221658230     -2.38235446178066     -2.83745806642576
  H           1.81883666669474      0.61082927130973     -2.94467938116933
  H           0.74039377597880     -1.88803396744502     -4.35205873677532
  H           0.13357676802927     -0.16921761229090     -4.53639687468239
  N           2.92760907208025      1.25982855477334     -0.29187190930790
  F           2.71091888788204     -1.64348059582302      1.64410200017830
  H           1.04066921077627     -2.72800336579934      1.49001981396007
  H           0.85172048428663     -0.94824944833910      1.45423897402429
