16
Coordinates from ORCA-job NEB E -36.557905772190
  C          -0.07831765770422      0.70398492734021     -0.97244641278568
  C           0.41158531172588      1.41733803985943      0.13226530623405
  N           0.91631000332243     -0.10376863053576     -1.68859049777686
  H          -0.72353875582326      1.21506398612575     -1.68123418255747
  I          -0.63975668009938      3.23381209747681      0.62066636141030
  C          -1.11237554785975     -0.66032893181724     -0.13687580734215
  C          -0.20742642412529     -1.21374139798302      0.77637761206125
  C           0.30845376232135     -0.36516281500358      1.79457754983135
  O           1.09152328188625      0.87003298532875      1.04365782145386
  Cl         -1.68182972122611     -1.66959235619558     -1.44658058899772
  H          -1.90536602593814     -0.01235272539629      0.22514775022233
  H           0.36042683312889     -2.08465592720560      0.48984599345076
  H           1.09264154125233     -0.78350524732025      2.41251163398376
  H          -0.41347630988097      0.21890524278547      2.36085912625398
  O           0.91212485837537      0.01928715355215     -2.88819230189709
  O           1.66902153064461     -0.78531640101126     -1.04198936354467
