16
Coordinates from ORCA-job NEB_product E -36.591559911190
  C           0.86182290723120     -1.17247041108951      0.61086802954979
  C           2.32524611116939     -1.07822247817662      0.96352788235402
  N           0.72522943486270     -1.25863048972596     -0.89958656496032
  H           0.32620395738194     -0.26384268245124      0.90973377458479
  I           2.70317298536689      0.39140460248462      2.50828189586635
  C           0.18333247393254     -2.38176107187392      1.27849104991497
  C           0.07640842429544     -2.23879828105525      2.76200495882524
  C          -1.07710599228670     -2.10815105954576      3.39050667759721
  O           3.20785252793868     -1.71327966480339      0.51762990926480
  Cl          1.11181946395464     -3.88146562769708      0.88460930385785
  H          -0.80414902330581     -2.50557104453720      0.82293060735419
  H           1.00764601091937     -2.27652724322243      3.30807169062787
  H          -1.12468245033655     -2.01411245914516      4.46065404116113
  H          -2.01557507176401     -2.08665622015151      2.86156321664204
  O           1.54528752809415     -0.65496464102002     -1.53207594641137
  O          -0.21290928745387     -1.86685122798956     -1.32771052622857
