27
Coordinates from ORCA-job NEB E -43.804870174200
  C          -0.13658133233495     -1.30349682416076      1.16610244081132
  C          -0.38491876078756     -0.55572921263039      0.10162339162827
  C          -1.16700452884366     -1.68168313826915      2.17767872021779
  H           0.87058272872776     -1.65914284179984      1.32064887464903
  O           0.71156655374066     -0.24028975235277     -0.78508213538515
  C           0.78338859534616      1.18556365763438     -0.92821152434067
  C          -0.33540789550144      1.90229014442920     -0.91388546948350
  C          -1.66176247996286      1.27445448245079     -0.66588347587008
  O          -1.58085411541588     -0.11230393131818     -0.31492275923475
  C           2.14997955443708      1.66907976888519     -1.28180153448874
  H           1.61543981568925      0.89889399108002     -3.70116270558477
  H          -0.29714153852690      2.96773424955242     -1.05743866287933
  H          -2.28336827615584      1.33131313726783     -1.56662272424674
  H          -2.18453635907361      1.80003360493327      0.14497785432561
  C          -0.72631915380308     -1.26905966403184      3.58136638417489
  H          -1.30149445208407     -2.76574707060039      2.15055754812430
  H          -2.11790580670695     -1.21425527911202      1.92197017802303
  H           0.21653838882084     -1.74340917243879      3.84115960486262
  H          -1.47528582531922     -1.56787640815378      4.30928357058215
  H          -0.59756688585003     -0.19127618777278      3.64026599790453
  C           0.56859563279163     -0.93181886988273     -2.06410999323089
  H           1.03706861254546     -0.29771108704275     -2.86713874157435
  H          -0.48220150452408     -1.07698533283771     -2.30400620136179
  H           1.09096709356621     -1.87912058423203     -1.97179697953249
  F           2.30506823636313      2.95927405268471     -0.90599343162068
  F           3.09442759338853      0.95072919979947     -0.62159415663963
  H           2.28872610947341      1.55053906791867     -2.40598406982997
