27
Coordinates from ORCA-job NEB_reactant E -43.963738220220
  C           1.78348256275574      0.26341320499277      0.00590774402087
  C           2.47751417317374      1.37416106824660     -0.23125723792780
  C           0.52066701857720      0.23860974064176      0.81286650351427
  H           2.14827809351105     -0.68654540804412     -0.34506439094523
  O           3.63589112772945      1.48177283751925     -0.94813287122555
  C           3.59506417373723      4.37205395464549     -2.44817089970896
  C           2.61887884457108      3.91810904620547     -1.68121927539501
  C           2.72675851576127      3.73337017328483     -0.19874051113807
  O           2.05029307775476      2.57760850764076      0.25259759018334
  C           3.47817952426968      4.54749807655407     -3.93071038226791
  H           4.56660937056352      4.63072226937033     -2.05409315007211
  H           1.66299582816530      3.64489655952866     -2.10840219733906
  H           2.21428470470397      4.55521226240711      0.31382722306059
  H           3.77833197314807      3.71677399614262      0.11104457913840
  C           0.73415253814441     -0.45053746194722      2.16094777891783
  H          -0.25101095992048     -0.30125161437845      0.25678204814045
  H           0.17941562068111      1.26034789363506      0.97531606104842
  H           1.07828173307301     -1.47261474954076      2.01660380880564
  H          -0.19408788215732     -0.47564481707120      2.72716502869762
  H           1.48081943987852      0.08548261391997      2.74173141569598
  C           4.11016738046369      0.34000454776004     -1.61621398376761
  H           4.97223365566557      0.67417760443378     -2.19115793728102
  H           3.35295768703730     -0.06495580599606     -2.29345019061969
  H           4.41816056898847     -0.43607355823351     -0.90902982383602
  F           4.42510695039108      3.81065215112884     -4.57544049262050
  F           2.28481531973451      4.12815524065301     -4.41149330548425
  H           3.61645895959805      5.59540166650089     -4.25111313159461
