27
Coordinates from ORCA-job NEB_product E -43.997622206430
  C           2.91054015258916      1.62187622759908     -0.86189022206056
  C           2.26166878114047      1.06929576815893     -2.12398178853005
  C           2.26316404597645      0.93348475996489      0.35371345208757
  H           3.96178520587035      1.31730479503781     -0.89644535453671
  O           2.54923921092272     -0.22481752841747     -2.27998815554734
  C           2.82094847246922      3.16898205327024     -0.88912613739447
  C           1.81322492121761      3.75177180605616      0.06197690418934
  C           0.60238208121856      4.12032253525635     -0.31005540540389
  O           1.57710925123580      1.69326634395080     -2.89156636936437
  C           4.18553132355570      3.81159695126975     -0.65504211998154
  H           2.52577231001763      3.44747355953171     -1.90836379942378
  H           2.13530172780037      3.85723901617166      1.08877827444771
  H           0.27121313719410      4.01165421933996     -1.32944366504273
  H          -0.10715630599184      4.52922311202624      0.38872355683790
  C           3.11736034596853      1.00841306391860      1.61296597388091
  H           2.11734490313853     -0.11860249874202      0.10083495144530
  H           1.28160326346304      1.37518539228547      0.53631638317843
  H           4.08840341192723      0.55052985752825      1.44061074853107
  H           2.62522455562658      0.47484219276603      2.42285134933790
  H           3.27984037687219      2.03339341780303      1.92934559604089
  C           1.98581228864734     -0.86058347966719     -3.42006580778451
  H           2.31897341531536     -1.89444504955873     -3.38663023150507
  H           2.33295591548998     -0.37412684151619     -4.33354584782215
  H           0.89604775078011     -0.80546067827706     -3.38465363307872
  F           4.71662747948856      3.48485197045046      0.54894053618801
  F           5.08608290444089      3.38969515210210     -1.57887013981743
  H           4.14459907362537      4.91103388169117     -0.70788904887174
