20
Coordinates from ORCA-job NEB_reactant E -49.900209431010
  C           2.36819920724659     -0.26378384690000      0.63516905887701
  C           1.50349265779736     -1.07813200111452      1.24030780367955
  F           3.11532692479396     -0.62034918834482     -0.42403996170017
  H           2.55792593246841      0.74979117349131      0.94276245634218
  C           0.71462418790420     -0.61967395366770      2.44108521678646
  C           3.72954486833787     -4.73019069174593      0.93027311668422
  C           3.29563785946537     -3.49467271735717      0.75107327277834
  C           1.98210580628557     -3.15838316704965      0.11573162247664
  O           1.16709458952786     -2.35988911695078      0.96791561667636
  C           5.04812599173569     -5.06380021381762      1.56002908096168
  H           3.17020317872596     -5.59569982570845      0.60707799931258
  H           3.89194078072403     -2.65607279847766      1.08321727623388
  H           1.38770818244104     -4.05992003894812     -0.04733696433806
  H           2.14643745120366     -2.66106661454284     -0.84657336447469
  Cl          1.30354893700188     -1.52432095537235      3.86613155896884
  Cl          0.85641365361459      1.10305052073412      2.77736185463274
  Cl         -1.00393049768521     -1.00586835794980      2.19826951524603
  F           5.79165359411554     -5.83981552337942      0.72761797811116
  F           5.78968706485823     -3.96324458360356      1.81880327745309
  H           4.93485962943740     -5.62135809929501      2.50662358529216
