20
Coordinates from ORCA-job NEB_product E -49.904347609990
  C           3.25705139742287     -1.64574999944915      1.52365767848702
  C           1.82583166729264     -1.14287246027906      1.38111701256348
  F           4.03807232849714     -0.94600425835338      0.64531499170512
  H           3.66158876624342     -1.46954625042572      2.52698261699105
  C           1.07472118199550     -0.94703608483405      2.71034454531340
  C           3.27619485921248     -3.15530893761582      1.17386613386028
  C           3.03544042818358     -3.35819950994248     -0.29537182557504
  C           1.96651172585908     -3.96027827565800     -0.77873880854357
  O           1.31319827092955     -0.88986247756974      0.33571837275192
  C           4.61158375672429     -3.77835207062694      1.60066376053427
  H           2.49863838692722     -3.65031715272911      1.76371634085437
  H           3.79664469591596     -2.94840260355670     -0.94300892614416
  H           1.19537899382721     -4.35868685854042     -0.13942107160751
  H           1.81861696831915     -4.07587489652925     -1.83745309163926
  Cl          1.30309118802609     -2.32030177322592      3.80864414334133
  Cl          1.79274338604135      0.51809875733684      3.43435222376465
  Cl         -0.64667613885135     -0.69600741609853      2.42188207027216
  F           5.66960936682527     -3.15618346992460      1.04893651241250
  F           4.76422812183041     -3.67411680734553      2.94477014778527
  H           4.66773064877815     -4.84599745463245      1.33602717287273
