15
Coordinates from ORCA-job NEB E -31.042554882460
  C           0.81247082766837      0.75314342989813      0.17074656917962
  C           0.03731913195833      0.11911749233807      1.23260549467898
  Br          2.57818693521428     -0.26447309528235     -0.13937482432827
  H           1.14479468366611      1.75492806299063      0.43972054401581
  C           0.02985536809207      0.67760917662604      2.50404770494724
  C           0.05611237666683      0.74969910048393     -1.16282218147396
  C          -0.74178561381722     -0.47698264999063     -1.34024542804157
  C          -0.62054037800553     -1.53418527544561     -0.31555073200762
  O          -0.66848317214600     -0.98944642113223      1.01339513759398
  F          -0.76773558936744      1.87835011570490     -1.16998573107880
  H           0.75703188364242      0.92824989580247     -1.99625792871540
  H          -1.58247253729426     -0.44419051383670     -2.00672630451079
  H           0.33001510770172     -2.08816876315638     -0.40597672065460
  H          -1.44284822798597     -2.24913395167596     -0.36276723807393
  N           0.07807920400627      1.18548339667569      3.53919163846931
