15
Coordinates from ORCA-job NEB_product E -31.085873081610
  C           1.37098529639418     -1.01481925138699     -1.30443820432102
  C           2.61241456855197     -1.56424743774526     -0.61788505702962
  Br          1.80326741704250      0.72487072130501     -2.07778549632726
  H           0.58712851065246     -0.84097369576062     -0.56079245658463
  C           2.33522862259511     -2.84741394113686      0.01226304728343
  C           0.82523038110220     -1.99861890282956     -2.35847646664604
  C          -0.28755238424728     -1.38940066765815     -3.15810247389726
  C          -1.55942377145278     -1.50002047920806     -2.82776050737470
  O           3.67605672842298     -1.02119269828014     -0.58318922978893
  F           1.85427842043997     -2.37278305322509     -3.19008272038188
  H           0.49550828295800     -2.91378813877898     -1.84424361260684
  H           0.03549996604716     -0.83224938012557     -4.02501335041709
  H          -1.88084854363675     -2.06054359241276     -1.96449532911294
  H          -2.33153673373510     -1.03169102608187     -3.41124674317224
  N           2.09086323886539     -3.85152845667513      0.50244860037705
