21
Coordinates from ORCA-job NEB E -42.148695661960
  C           0.49464268608179      0.57461410190788     -0.34191885070107
  C          -0.53372632693029      0.20575070368184      1.77824483888850
  C           0.51587673156405      1.97324861378866     -0.83412092046787
  H          -0.29799422378401      0.62448897041938      0.70704813515602
  C           0.34941878191729      0.93747858586445      2.80269643681110
  C          -0.12760399103038     -0.41970677634154     -1.28562296708937
  C          -0.14412210405383     -1.82711769448240     -0.74019387200151
  C          -1.17461512041608     -2.64003405776328     -0.86128084037151
  O          -1.09827861966101     -0.82936131792439      1.95936880039926
  C           0.69490202788910     -0.42574850065237     -2.48185114390722
  H          -1.13937238408169     -0.12779786643476     -1.61786557815797
  H           0.76895725759009     -2.13307479871629     -0.25033513686299
  H          -1.15282361492255     -3.63912469835939     -0.46415416220493
  H          -2.08692979274140     -2.34179868871418     -1.35291152441983
  H          -0.37430648323443      2.28579828378236     -1.39327562740101
  H           1.36080305909376      2.01639844489186     -1.52774366633527
  H           0.71661685426925      2.68210130249065     -0.03332673314775
  F          -0.15870048213848      0.85808152920074      4.03051256631024
  F           1.58739008140713      0.43273120134804      2.83597605269461
  F           0.46407721333921      2.23751515783059      2.49746898477638
  N           1.33578844984247     -0.44444249581785     -3.42671479196780
