21
Coordinates from ORCA-job NEB_reactant E -42.305595270280
  C           1.94785490266897     -0.21921582043225     -0.11054352325500
  C           1.63076408321765     -1.31177995830351      0.57967603265778
  C           1.97709818309118      0.02454782552418     -1.58460215851987
  H           2.22805053830124      0.63892795428629      0.48326556260286
  C           1.71839330596052     -1.30561727636078      2.09639794768875
  C           1.63992865780376     -3.36316865613432     -3.33105480216118
  C           1.81742984690358     -3.22844765053456     -2.01707384060713
  C           0.72660788437044     -2.84090446345385     -1.06600138911661
  O           1.20028121534478     -2.55895633705987      0.23324772121869
  C           2.67951660631862     -3.75414396389971     -4.19689390498745
  H           0.68464368439691     -3.17172490533983     -3.80358266000170
  H           2.77842587375729     -3.43412855231444     -1.56439463711204
  H           0.06100253573343     -3.70254210615877     -0.92241417219257
  H           0.12620114094208     -2.00997920293995     -1.45406035346256
  H           2.13956218926736     -0.88135917916728     -2.16010872813412
  H           2.78195388512146      0.72126036579129     -1.80815874981942
  H           1.04545412561440      0.48882386731522     -1.91050940006128
  F           2.55993303728089     -2.24389827615936      2.55051699121374
  F           2.14083356933191     -0.13957116404514      2.60101104589733
  F           0.52647049242510     -1.55300120153603      2.66020234905891
  N           3.51819424214845     -4.06352129907731     -4.91441933090711
