21
Coordinates from ORCA-job NEB_product E -42.308811710290
  C           1.65761267171214     -1.33055317615854     -0.92069516948896
  C           2.48223210343989     -1.85653170150731      0.22355669217551
  C           2.25098093406880      0.00235767318077     -1.40128106678336
  H           0.64050073389816     -1.15386656552204     -0.54957124556670
  C           2.45516806895271     -0.94760078578896      1.49559705930138
  C           1.58338689414535     -2.35469345301648     -2.07652071017989
  C           0.89450910091108     -3.63159021007753     -1.66491537509242
  C          -0.26244623283070     -4.01984933787165     -2.16472754745144
  O           3.13889536926895     -2.85358875268930      0.24188786676457
  C           2.91079312919571     -2.66213615172428     -2.56957741107859
  H           1.02551705256632     -1.89291600351096     -2.90090068780059
  H           1.41658806858269     -4.22431852706384     -0.92813354248059
  H          -0.73235796372106     -4.93544607531906     -1.85101561430350
  H          -0.78929935867148     -3.44413948709717     -2.90907442202631
  H           1.67179329777766      0.37479746525795     -2.24295819847706
  H           3.28079155171304     -0.13665942976122     -1.72437192674461
  H           2.22692797100045      0.75377806200367     -0.61684362566945
  F           2.59681315463034     -1.66719664092882      2.60636370417064
  F           3.44534415731367     -0.04550344597770      1.46559954507827
  F           1.30722175395911     -0.25969588244478      1.61362411441995
  N           3.94862754208716     -2.90044757398275     -2.98204243876686
