26
Coordinates from ORCA-job R E -38.063302631190
  C          -1.48699951497413     -0.05605563988957     -2.66416088620607
  C          -0.81321227738288     -2.87395675714131     -1.89488088210738
  C          -2.03996519200763     -2.40966634571663     -2.13149903536783
  C          -2.36646516631350     -1.02877365217667     -2.38918572920707
  C          -0.87670482593187      1.28587848001573      0.02182454123344
  C          -0.02128182438566      0.26503229707335      0.02806621767327
  H          -2.88082354400476     -3.08997871821725     -2.11542220191682
  H          -3.41436157600255     -0.75548899546670     -2.35617869733922
  N          -1.91088671248322      1.27873416106711     -2.89301044023648
  H          -0.63839709521971     -3.91803879124231     -1.70032648573766
  H          -0.42255047460721     -0.19014142889269     -2.76219221384049
  H           0.04748132648666     -2.22840084445686     -1.87283626668988
  H          -1.83764289147716      1.18614362742660      0.49193148275372
  H          -0.29819152639114     -0.65980366273308      0.51990494192813
  H          -0.65861277672064      2.23824486073185     -0.42391469400045
  N           1.19419405382884      0.18841623831535     -0.61426004445489
  O          -1.04340792761683      2.08318659418435     -3.18448322465815
  O          -3.09164997929613      1.54655286327698     -2.80076676223368
  C           2.18248294433212     -0.71087217890746     -0.06859059294892
  C           1.73963779501380      1.38599623886131     -1.21324488339183
  H           1.69514424446918     -1.60763091087792      0.31208769259899
  H           2.75506444097296     -0.25428793828962      0.74965428024864
  H           2.88270012997661     -0.99953705779643     -0.85502671475333
  H           2.06239205235935      2.11708385426212     -0.46213423844661
  H           0.99444776521588      1.84986359677876     -1.85664117863911
  H           2.59999855215964      1.11187010981098     -1.82321398426033
