26
Coordinates from ORCA-job TS E -38.050674290280
  C          -1.45133678716482      0.53812655462249     -1.16838785484145
  C          -0.17505526567325     -1.91744093004265     -0.47356890512579
  C          -1.51710270181578     -1.82671696975919     -0.65234352262980
  C          -2.16019521106518     -0.65149366166274     -1.06239208966087
  C          -0.81625861341510      0.95731606307380      0.73454969245970
  C           0.14949888847337      0.05710528179864      1.14203297326629
  H          -2.14311748237681     -2.65643243473384     -0.35327372809360
  H          -3.23787969664264     -0.59555752157701     -1.03954415391761
  N          -2.17343878607214      1.72904313579281     -1.47665471866308
  H           0.26031643153925     -2.80326431065351     -0.04272629223486
  H          -0.45452281708942      0.56846426182609     -1.58364207403090
  H           0.50756182001468     -1.23659570581732     -0.94450480426370
  H          -1.78539124578852      0.86489060471729      1.19529845736003
  H          -0.13834307889819     -0.77969166380760      1.75871796701090
  H          -0.52586911504685      1.96852713905018      0.49846861749972
  N           1.49237069407243      0.22024283320916      1.00969407951356
  O          -1.53169406843805      2.64690666307030     -1.95934150580000
  O          -3.35724458624607      1.78503594724804     -1.21491799398451
  C           2.38137270069878     -0.82415212634850      1.44676056635065
  C           2.07901843502720      1.12934958919033      0.05766043370862
  H           1.91319071307903     -1.41086581047337      2.23344913830092
  H           3.29610097742760     -0.37830917864539      1.84105704517610
  H           2.65381505782303     -1.49452296886825      0.62271295886927
  H           1.38792308163305      1.92625040693226     -0.19730991409021
  H           2.36972626095225      0.60962309468250     -0.86330509306427
  H           2.97655439499214      1.57416170717544      0.49151072088491
