23
Coordinates from ORCA-job P E -39.031526618460
  C          -1.25519731194073      0.50268752518089     -2.30790433977976
  C          -0.90444478907109     -1.80498921564634     -0.45341393176956
  C          -1.63539181051498     -1.89178525798681     -1.75355830100022
  C          -1.79161338260291     -0.87456583648829     -2.58284745943043
  C          -0.92977050349002      0.66698341723189     -0.82209400316176
  C          -0.07807123952135     -0.51614270854177     -0.35771429850107
  H          -2.04453657184269     -2.85929991732240     -2.00656847327925
  H          -2.30578216292276     -1.01377607753184     -3.52364546019762
  C          -2.24996488686514      1.54734195865903     -2.78108329753468
  H          -1.62292062241347     -1.83397203378160      0.37117446992407
  H          -0.32547007914391      0.64263340427539     -2.87840527630155
  H          -0.25593108479965     -2.67680903956853     -0.34425702681724
  H          -1.84717105864203      0.69294604680419     -0.23017928768359
  H           0.22312586371705     -0.35418777727776      0.69079323316626
  H          -0.37322913841165      1.59091345344635     -0.65715309547342
  O           1.07713002435076     -0.53840249656082     -1.17464500931082
  Br         -3.99739400267157      1.27608978817725     -1.95098725690303
  Br         -1.66513071786493      3.36472357115184     -2.37092820168972
  Br         -2.49597986168198      1.46548928979665     -4.71949571776268
  C           2.16287604948216     -1.25917733519533     -0.65262437475731
  H           2.99454979081518     -1.08812753118729     -1.33324588965274
  H           1.96092849965030     -2.33472202163287     -0.60013058750465
  H           2.43131899638539     -0.90048120600180      0.34873358542077
