17
Coordinates from ORCA-job NEB E -26.672132519180
  C           0.65450633268578      0.99708800344642      0.06410852355946
  C          -0.79931959865804      1.30830756927981     -0.08258023727836
  H           1.17634444112761      1.29910380740308     -0.84918030165810
  H           1.06372251642767      1.62795200416839      0.86242559985278
  C          -1.14054876084700      2.60440097960869     -0.42153164341054
  C           0.99973160324685     -0.46994659164262      0.35361526687412
  C          -0.19021926101643     -1.33545442732165      0.50520403442156
  C          -1.56972922006170     -0.89973519365491      0.29595720252401
  O          -1.82127913188283      0.46383584872308      0.13654532536255
  N           1.93280311509510     -0.94124997970802     -0.68610416926100
  H           1.58798735258164     -0.50148464265724      1.28620695051490
  H          -0.04411047138482     -2.37263403643346      0.75154546195604
  H          -2.21076120858865     -1.22368438461974      1.12947970355537
  H          -1.99373610473452     -1.37617774218454     -0.60376155913813
  N          -1.36629499463847      3.70157324721586     -0.71547627506078
  H           2.27255211104302     -1.86720886608446     -0.45006335850914
  H           1.44835127960482     -1.01468559553870     -1.57639052430474
