19
Coordinates from ORCA-job NEB E -36.610057452880
  C           1.14077395011701     -0.24769843756756     -0.42901243173483
  C           0.65313589406100      0.53515269770142     -1.47293027754364
  C           0.77532452093978     -1.70146259632524     -0.40646850495228
  H           2.12850470201001      0.00008680336926     -0.05514681850617
  F           1.29380501689715      1.73738202555163     -1.66059453501656
  C          -0.08986430574733      0.62736213845031      0.92451826531105
  C          -1.35423262304720      0.41063802101485      0.38367238692107
  C          -1.67217127747128      1.06122939254028     -0.82679045037853
  O          -0.51858631519977      0.46131883386158     -1.92468901088200
  N           0.26549850987117     -0.05591841439907      2.14541142288168
  H           0.37054331244228      1.60908060727946      0.88367052255880
  H          -1.87857793551214     -0.48824936294408      0.67403290135399
  H          -1.42382443204084      2.11356038744061     -0.91318408857833
  H          -2.59887683426210      0.79407584528458     -1.31496293023820
  H           0.71042665927731     -2.09576187187970      0.60504537788574
  H           1.54765636158768     -2.26457972452312     -0.92898368355822
  H          -0.17317661921766     -1.86201628825521     -0.91275724748996
  O          -0.25829311070813     -1.12235675566920      2.37627422051053
  O           1.08193452600305      0.48815669906921      2.85289488145587
