19
Coordinates from ORCA-job NEB_product E -36.656474714630
  C           1.55560659654077      0.64901529678110      2.08637982971267
  C           1.39568900682255      1.34156793521955      0.75982627799422
  C           1.11479331148278     -0.80603568727242      1.97211876003146
  H           2.61833334688435      0.71498769856320      2.35646806731902
  F           1.90240206805343      2.60823633532294      0.81571086927990
  C           0.75292516385349      1.45988257077740      3.14181389111012
  C          -0.72744552638942      1.34104745553735      2.94357282502927
  C          -1.44858371842070      2.26775410771467      2.34267367822431
  O           0.91997212537343      0.95293174524892     -0.24278207441039
  N           1.15483454027066      0.93656583163276      4.47865918637294
  H           1.08218401166432      2.50444434275075      3.11030715734902
  H          -1.17140156891689      0.43534826157216      3.33095837975534
  H          -1.01058993717811      3.17410995081641      1.95683894710282
  H          -2.50874083792600      2.15326243254642      2.20410780236208
  H           1.07109547625747     -1.27743682142790      2.95066069883816
  H           1.81758838060188     -1.35716980977281      1.35306164687837
  H           0.13400221475866     -0.86614890327565      1.50750770924624
  O           0.60268243676655     -0.05313439520313      4.88643752769298
  O           2.03885290950080      1.53257165246828      5.04017882011145
