18
Coordinates from ORCA-job NEB_product E -32.634418578220
  C           2.88945667412272     -0.68198338893896      1.40062479594819
  C           1.43313073435047     -0.73992214756884      1.13009526029550
  I           3.89975973605229      0.19493669922062     -0.28588481250720
  H           3.10790301097815     -0.03926344658784      2.25445555803140
  I           0.31560890361182     -1.16063987588343      2.95153485144583
  C           3.46433916226005     -2.08457113629949      1.67065910034263
  C           3.00841188274904     -3.05840745740155      0.61665194492797
  C           2.18030039842702     -4.05765960050323      0.85190499916226
  O           0.84990039231876     -0.61087842367292      0.11705993644106
  O           4.86102687463745     -1.91325569584784      1.69839203016604
  H           3.10986209767820     -2.42357301606886      2.66115919647476
  H           3.41173447571667     -2.87793000833854     -0.37074077309691
  H           1.77993844528182     -4.24997678100130      1.83500710343845
  H           1.86222555328513     -4.72311714370049      0.06844601495829
  C           5.57469444633412     -3.06116717252263      2.08873943870018
  H           5.29600527828117     -3.36882741064652      3.10339081023704
  H           6.62534761958848     -2.78176835400195      2.06597562315382
  H           5.39985431432665     -3.89609564023624      1.40262892188070
