18
Coordinates from ORCA-job NEB_reactant E -32.623264219850
  C           2.14736620687842     -0.20000343191052      0.68866421982581
  C           1.32473555600903     -1.05752790127305      1.26906963450195
  I           3.56444451151821     -0.55074907984580     -0.83197983528269
  H           2.12567589796061      0.83734726109476      0.96563990792673
  I           0.00641312701722     -0.25373470573474      2.74318573865174
  C           3.58988018806835     -2.94697696475641      2.37912950926742
  C           3.32602112504736     -3.30501874505162      1.12682888691709
  C           1.94419839832660     -3.26955818444330      0.54366771802243
  O           1.06558283395314     -2.35826757681635      1.19442166833179
  O           4.78042264792505     -2.91514574395160      3.00711186122936
  H           2.81230035430619     -2.61598499708641      3.05638274358887
  H           4.09158947508254     -3.64981013923449      0.45147767159175
  H           1.44113198803888     -4.23532525463501      0.67203079588188
  H           1.98821663196316     -3.05309373084515     -0.52958408362631
  C           5.91981404816779     -3.29612204942418      2.26932425669976
  H           6.76627832932472     -3.17734991324272      2.94256410582846
  H           6.05443687734628     -2.65458348623905      1.39304201194392
  H           5.85129180306646     -4.33929535660436      1.94642318870003
