18
Coordinates from ORCA-job NEB E -29.840573501540
  C           0.42059365759959      1.27635420982239     -0.03302978281103
  C          -0.92566686874206      1.15267733641322     -0.39573997830506
  F           1.35065093652104      1.36518992125061     -1.01772773615574
  H           0.71009119003885      1.89856118583170      0.80756612204572
  N          -1.89754689060682      1.53593802167568      0.51281300020126
  C           0.79214098460963     -0.63901453044405      0.54864224521675
  C           0.43239154919438     -1.29202829410028     -0.63819849137243
  C          -0.90161569958201     -1.24541786809739     -1.06920823522126
  O          -1.27544417468822      0.42676858038668     -1.39324822384447
  N           2.11092782385954     -0.54732221258400      0.97149552321327
  H           0.07784138098541     -0.63705138150537      1.36757446979560
  H           1.20588311491410     -1.42267450064335     -1.38186235005480
  H          -1.67396793690071     -1.40638500876506     -0.32435050745116
  H          -1.13348294290603     -1.67431963250731     -2.03245771394499
  H          -2.78453074799427      1.06470289873166      0.43807963283725
  H          -1.61368245717821      1.82043217647639      1.43412174070736
  H           2.79430385888723     -0.84102351753987      0.29189606008313
  H           2.31111322198855     -0.83538738440166      1.91363422506059
