18
Coordinates from ORCA-job NEB_reactant E -29.871468546470
  C           2.26145444530400     -0.14655534775207      0.31552253899474
  C           1.45125846699001     -0.78235060693075      1.16787476862857
  F           3.01813231784915     -0.75653211522268     -0.64111183090304
  H           2.41936698273089      0.91725422096045      0.34043849687064
  N           0.77188085140505     -0.06204075331709      2.14876579253144
  C           3.68031909115190     -4.03883620958298      2.25922863022304
  C           3.35886927939417     -3.13186093221865      1.33936774935848
  C           2.01865067629124     -3.07872812878305      0.68183274123939
  O           1.15006095405394     -2.09971231162285      1.26396325206581
  N           4.85641940395202     -4.05626554214717      2.97815030991583
  H           2.97745740795438     -4.81193876305585      2.54108712790064
  H           4.06043694982916     -2.35640599419294      1.07092651520999
  H           1.47727485118482     -4.01567121831991      0.83483118539313
  H           2.11804726819846     -2.89291695129139     -0.39247102986981
  H          -0.00412349107766     -0.58504318278582      2.52748767565496
  H           0.53225721956713      0.88436246349888      1.89912130736647
  H           5.58477119047689     -3.45831477700554      2.61767400296529
  H           5.18306613474445     -4.95974385023058      3.28061076645443
