18
Coordinates from ORCA-job NEB_product E -29.894868895800
  C           2.09548348177928     -1.16811529179732      1.20633121732339
  C           1.03727107020864     -0.76921895743934      2.25309595892844
  F           1.48967591954380     -1.27836408231870     -0.01932594948267
  H           2.83647406266296     -0.36059752426896      1.11665317720284
  N           1.54418061538453     -0.72947686892879      3.50303480806991
  C           2.80159469367599     -2.50075467089142      1.54133269186418
  C           3.56489166821626     -2.98728575593432      0.33884724735671
  C           3.34836482480201     -4.14288636630634     -0.25856854094042
  O          -0.09840749504621     -0.48578996170872      1.96595848299012
  N           3.66739268163720     -2.28934472285626      2.70493031945738
  H           2.03972182442779     -3.23794208769686      1.81737509812946
  H           4.33910025881278     -2.31572147996874     -0.01126276312980
  H           2.57411651165865     -4.81487509903007      0.07292878075081
  H           3.92460352887825     -4.45923027450302     -1.11079784184724
  H           0.90472578338767     -0.55741440548170      4.26203971792983
  H           2.43367497014790     -1.18469356382143      3.68080566318413
  H           4.46421234163582     -1.71696460088489      2.43843618366720
  H           4.02792325818671     -3.18022428616311      3.02958574854573
