20
Coordinates from ORCA-job NEB_reactant E -33.561129772830
  C           1.53123892486883      0.20324657374227      0.04543000954337
  C           1.53426490759688      1.17336512458832     -0.86275200050197
  H           2.00178427077138      0.30129634525871      1.00518141287215
  H           1.04641348362153     -0.73206820345696     -0.15816732838936
  C           0.85937953281008      0.98648934986945     -2.20661955590516
  C           3.16745661923636      4.93323863263762     -0.73953671440348
  C           3.30472360327174      4.14059951151068      0.30893639507899
  C           2.76425647603499      2.74566188183615      0.40919252320655
  O           2.08733742711349      2.39876760349005     -0.78025879464399
  C           3.71070504903274      6.31809876910440     -0.82487511182727
  H           2.63000683938994      4.57977808275844     -1.60748472127817
  H           3.83718522010798      4.46529288029952      1.19314099779971
  H           2.07357172581248      2.67639082162264      1.26424302159145
  H           3.59084047406823      2.03981064138978      0.58653674579576
  F          -0.08327529174575      1.93588674549863     -2.41766335524174
  F           1.75038185007571      1.10655062111037     -3.22078597646340
  H           0.37533355425487      0.00265475109655     -2.29771571150107
  H           4.40016575582343      6.39756885720705     -1.66460556398582
  H           4.23298429927115      6.59324047921400      0.08823085531506
  H           2.90144527858393      7.02673053122234     -0.99722712706162
