20
Coordinates from ORCA-job NEB_product E -33.573708290680
  C           2.34935714201848      2.35327109803344     -1.04043741693783
  C           1.07520937179622      2.42181483104344     -1.81775160118525
  H           2.30515738821377      1.43557443858290     -0.44286034285489
  H           3.17861385525350      2.22955976473109     -1.74353499095943
  C           0.92375220077453      1.26028523774128     -2.83835260827016
  C           2.58060671126419      3.56865302195666     -0.13270613873620
  C           3.68483790425743      3.26622837932417      0.83711418560276
  C           3.54808251104627      3.27096576694577      2.14889231535440
  O           0.20670826614793      3.24163070929876     -1.71397613751630
  C           2.93738671263742      4.79961930312947     -0.96804314708166
  H           1.65671408142645      3.76987567569912      0.41754127810957
  H           4.64377089746055      3.04447098199687      0.38639888952319
  H           2.60379142166407      3.49288685117021      2.61876481825321
  H           4.37002574135526      3.05682247403714      2.81048585938549
  F           1.94559142175511      1.28768985894809     -3.72759442814438
  F           1.00330805497167      0.06724626331821     -2.20083222841162
  H          -0.02615115924353      1.30416860046161     -3.38993735635769
  H           3.84555707621127      4.62371382774109     -1.54152859812056
  H           3.10164226782689      5.65558381581785     -0.31828796792321
  H           2.12943813316252      5.03793910002284     -1.65455438372942
