23
Coordinates from ORCA-job NEB E -44.971394516330
  C           0.92896594952591     -0.41165757597660     -0.63455419742228
  C          -0.44428129634831     -0.71004013397064     -0.50066014323111
  Cl          2.08368395448444     -1.65554687005444     -0.19606253854300
  H           1.25713554499852      0.11677251915011     -1.52344855211824
  C          -1.45638569005335      0.04361122697358     -1.32455091578038
  C           1.05765753263392      0.83118096137353      0.79341453791933
  C           0.64805186011435      0.09133182649169      1.91551844772259
  C          -0.68572134284092     -0.39493745877353      1.91139429425195
  O          -0.83569670458242     -1.31773036222710      0.57541241294878
  C           2.46609475738839      1.37527144467357      0.78942025863842
  H           0.38001930805963      1.58966376857210      0.40734116619878
  H           1.39891882247344     -0.45622007378372      2.46486415774916
  H          -1.46769520673769      0.33623080663682      1.71836113760533
  H          -0.94838188949131     -1.08626501865977      2.70200412295886
  C          -2.37102064092070     -0.93797309460721     -2.06081506433550
  H          -0.95266926563349      0.69448275067051     -2.03908436850145
  H          -2.06868913869789      0.65717187748067     -0.65490553112683
  H          -1.79533504975488     -1.53303136635021     -2.76487580651308
  H          -3.14182302460805     -0.39943580032106     -2.60575214846327
  H          -2.84444631346088     -1.60820796399562     -1.34836021832221
  F           3.37051838059582      0.57629452088601      1.35287196916918
  F           2.90772435453527      1.66014505922016     -0.44685928726207
  F           2.51337509832020      2.53888895659116      1.46932626645705
