20
Coordinates from ORCA-job NEB_product E -37.819237140770
  C           2.28805145330811      2.11118164743353      0.85146232931837
  C           0.97642743180518      2.65310486806244      0.29196661469719
  H           2.19433260900640      1.02207314055570      0.87652375671188
  H           3.12466460701964      2.36563659299522      0.19998137595605
  C           0.98496206176978      2.88962760487235     -1.19063340156850
  C           2.53266361958515      2.61290981412483      2.28217325092087
  C           3.47682172428867      1.72670773226469      3.04415687886831
  C           3.16095596208154      1.12395457215861      4.17357493152132
  O           0.02343704017300      2.85567781045990      0.99598005576221
  C           3.11451013749294      4.02033378305555      2.21832899488664
  H           1.56994198735574      2.68638683519721      2.80070011549395
  H           4.45606021795597      1.60896443546047      2.60019095943230
  H           2.19016497910559      1.23867891620408      4.62624642386561
  H           3.86083235903714      0.49101516919120      4.69030672435953
  H           1.58770467192314      3.77434802112511     -1.39122436510871
  H          -0.02489912945808      3.06351918458554     -1.55136018075079
  H           1.43241990914698      2.04705253935777     -1.71203871037751
  F           4.33695420767830      4.04165716026624      1.65528902280228
  F           2.36438642705554      4.86246452895343      1.49017106770799
  F           3.24580772366928      4.57310564367611      3.43060415550100
