22
Coordinates from ORCA-job NEB_product E -58.396599171350
  C           1.66029868506931     -1.24236414152054      0.89348485512147
  C           3.03143739518785     -0.87742632518908      1.52075961601103
  C           1.88691282834202     -1.56437481702420     -0.58908275934734
  H           1.01995270855233     -0.35328971249339      0.92491036024275
  C           3.00335527449697      0.21958451681394      2.58424835613256
  C           0.95444000938522     -2.37481102194301      1.68318010209605
  C           0.06587212249937     -3.32845295090320      0.94436938914016
  C          -1.23694538683978     -3.37861677051774      1.15306588591766
  O           4.08349847360485     -1.17055193847179      1.03120563623286
  N           1.99658051936391     -3.13743370127340      2.42684033612128
  H           0.35918054155693     -1.89984300794800      2.47630672799641
  H           0.55422767168545     -4.02146351244136      0.27779618670536
  H          -1.73939299536027     -2.70495229708665      1.82787119894801
  H          -1.85582042146481     -4.09056234137933      0.63783004074406
  Cl          2.80757344391163     -3.06767544177577     -0.79256793316087
  Cl          0.32288249167927     -1.69742014865000     -1.43097238957303
  Cl          2.77124443791499     -0.22345447766154     -1.36824373934123
  Br          4.67784725064891      0.24561299509835      3.52573042363777
  Br          2.79220924846166      1.87764279824802      1.56244239944466
  Br          1.55356889684293      0.10936428613082      3.84691836400831
  O           1.90173650893875     -4.32126821213150      2.52559632825305
  O           2.86124029552253     -2.44474377788062      2.93381061466902
