22
Coordinates from ORCA-job NEB_reactant E -58.388518895990
  C           2.07859150146627     -0.28418611943473      0.00807725224754
  C           2.07128986754881     -0.13757339228950      1.33784101497421
  C           1.88220227964111     -1.51460168309757     -0.79924624241072
  H           2.29823977915594      0.58448598518600     -0.59516411324590
  C           2.43362058819992      1.17448031463601      1.98806490131129
  C           0.34678245463376     -4.35196624187057      2.08729682950449
  C           1.09509706231441     -3.30800035355734      2.42184770278081
  C           0.67437912450235     -1.88749121685596      2.26558275281301
  O           1.78702772860325     -1.00022688734168      2.32879647422325
  N           0.81090309844483     -5.69206420826072      2.30884600413203
  H          -0.62747961375034     -4.30231233874368      1.62616530407377
  H           2.06170852208350     -3.47496918379306      2.88248275422145
  H           0.04221272504220     -1.62185185267065      3.12675234438791
  H           0.09272479374603     -1.73243201706608      1.35429337993344
  Cl          2.62659452253467     -2.94696249808847     -0.04404805526718
  Cl          0.13774878285068     -1.85417601277452     -1.09995086560134
  Cl          2.64712020210545     -1.28720017332010     -2.39457893495334
  Br          3.19640829902480      2.52050094359664      0.84436292916187
  Br          0.78062867486594      1.89004287545130      2.77537852546886
  Br          3.68941872333575      0.81544716494690      3.43045177366786
  O           1.90027363287389     -5.84581644225569      2.81364676260092
  O           0.06700725077678     -6.58252666239653      1.96290150597577
