21
Coordinates from ORCA-job NEB E -44.074813276140
  C           0.14785629843256     -0.73124585290908     -0.89292878013076
  C          -1.27139392969010     -0.49154806124878     -1.00436960526926
  F           0.46467512623281     -1.91305634569233     -0.29971821798305
  H           0.74220017675482     -0.63790423465354     -1.80243915919095
  C          -1.82993915294854      0.23075994968035     -2.09035410007431
  C           0.75404579876804      0.45827354817722      0.21303622705961
  C          -0.04340674589737      0.22278261690100      1.36991772668553
  C          -1.48531844683184      0.30000348399010      1.23608736643945
  O          -1.98610333173542     -0.56286410446413      0.11267424187859
  O           2.11879010051679      0.37207072933807      0.23305631250905
  H           0.50090753175185      1.36730539436941     -0.34912631867578
  H           0.37397837395070     -0.29404546488037      2.21809065208933
  H          -1.82796651388950      1.30179591090939      0.95030483771400
  H          -2.02638594716093     -0.05722922746475      2.10898579813422
  Br         -1.07321526702474      0.00089134192133     -3.80815198061192
  Br         -3.71994598027499      0.26868066019525     -2.11901420425561
  Br         -1.33613735902920      2.56263103152999     -1.63068371990770
  C           2.73776288809202     -0.44639005942746      1.20933233708275
  H           3.77609271179008     -0.53336365644988      0.89628528593959
  H           2.28646365859557     -1.44014180257471      1.25193097831194
  H           2.69704000959738      0.02259414275292      2.19708432225527
