21
Coordinates from ORCA-job NEB_reactant E -44.108071489090
  C           2.20632204891684      0.49459584947678     -0.29504475645782
  C           1.63251719229000      1.69432692402506     -0.20878760395956
  F           2.64894044585312     -0.20415801080245      0.76236921700465
  H           2.37358555118000     -0.03351866018611     -1.21917792033750
  C           1.13033854585031      2.42168991262686     -1.41459719968763
  C           4.07431845257236      2.80505993994481      1.68140339948312
  C           3.24708107745604      2.01485706214427      2.35657137789038
  C           1.75875329916426      2.04590836386779      2.16589362309138
  O           1.35417265673889      2.46330927045913      0.86730091698741
  O           5.41886503325347      2.85671142426829      1.74075583524730
  H           3.71309356416885      3.53276883688441      0.96551161539748
  H           3.59570414908312      1.28926747066567      3.07223752710801
  H           1.29144659951304      2.78779443034110      2.82302905450605
  H           1.32862156192071      1.06429001634024      2.39333526218541
  Br          1.46983956133249      1.56933655997159     -3.10599283943043
  Br         -0.80394761145976      2.65834288790729     -1.22805561599285
  Br          1.94523252159670      4.19645956596302     -1.45788586443957
  C           6.06893560230862      1.97743983596272      2.62993091714479
  H           7.13408612421051      2.16830671853058      2.51538291389584
  H           5.85367769513082      0.93382157205403      2.38054927444383
  H           5.77081592891961      2.17009002955491      3.66497086591971
