21
Coordinates from ORCA-job NEB_product E -44.097556980390
  C           3.11935965598070      1.49028015492632      0.14188176740735
  C           1.65591656976964      1.49779925103190     -0.22320735369717
  F           3.48417545874739      0.19227110756192      0.39991245439991
  H           3.77844063100104      1.85234482387350     -0.65578547688363
  C           1.27417107982427      2.31709950749583     -1.44720701012332
  C           3.31330124835113      2.37272170068362      1.42707675793215
  C           2.64637684577004      1.69174086815994      2.58920560367597
  C           1.66740390582175      2.24526867899171      3.27860111221452
  O           0.81494421766750      0.90141799362150      0.38343753768068
  O           4.66348295849551      2.70643483404710      1.59633179735342
  H           2.82961143952822      3.33899707905055      1.23615385487584
  H           2.99766507713824      0.69579109833795      2.81554816297677
  H           1.29910118450037      3.23386885344939      3.05675639060560
  H           1.19601023503102      1.73030671365874      4.09713649015107
  Br          1.94862561720555      1.31010973801983     -2.98135878623102
  Br         -0.64460670507184      2.46121897598127     -1.55582693560176
  Br          2.06413257999718      4.08774100688886     -1.44595698037064
  C           5.51647925366182      1.72095989275367      2.15052792880535
  H           6.51598594069132      2.14660036530467      2.08873071840743
  H           5.48791380441820      0.78472741858121      1.58885453027042
  H           5.27010900147096      1.52759993758052      3.19838743615105
