19
Coordinates from ORCA-job NEB_reactant E -34.766729861540
  C           1.29902608396941     -0.11461844980320      0.06488434449545
  C           1.68946888195564      0.62891790920114      1.11039742919890
  C           0.81447986763756     -1.42477847320146      0.10842688666334
  H           1.32976134242558      0.34089566373636     -0.91410136611690
  F           2.07169050904265      1.89167711416343      0.85913473000906
  C           3.13194443492282     -2.78521312713831      2.10093280819513
  C           3.03048606137411     -1.62267242543204      2.73891870630902
  C           1.72700393230805     -0.91601612384889      2.94011623696970
  O           1.77080247018431      0.41504491174051      2.40922236120740
  O           4.23665902889193     -3.51389532891021      1.87226579224502
  H           2.26401117880525     -3.28759452946619      1.69398689873993
  H           3.88921033474563     -1.10886752377529      3.14264178171344
  H           1.53576640047376     -0.75043052394610      4.00468566610984
  H           0.89729354695821     -1.47732354401632      2.50466390256579
  N           0.40258040146895     -2.49700913382030      0.08391108944729
  C           5.47110221460478     -3.00912272258336      2.33201391136900
  H           5.46936825233456     -2.89376669644457      3.42002119132980
  H           5.70320121768293     -2.04646359367440      1.86685169428301
  H           6.22144384021387     -3.74266340278081      2.04402593526581
