21
Coordinates from ORCA-job R E -30.778802639620
  C          -1.47090079898038     -0.16135826920732     -2.37484703435669
  C           0.29968390983560     -2.59127052101900     -2.28698201637604
  C          -1.02455323869837     -2.58078399943634     -2.16530265077320
  C          -1.88148690565367     -1.40987663591954     -2.17352828156278
  C          -0.33112623081228      2.23623294472537     -0.00790826817433
  C          -0.03861304047537      1.08967539179546      0.59513173810551
  H          -1.55012877581575     -3.51913399814787     -2.03389792551668
  H          -2.93415044189563     -1.59615748971681     -2.00416171107929
  Br         -2.66837843466078      1.29736193955879     -2.34068117931629
  H           0.85030136736779     -3.51661279630597     -2.26754947920113
  H          -0.45134033560682      0.13612754122703     -2.55049349932117
  H           0.88047081233299     -1.69366185541196     -2.40970670116418
  H          -1.05770128157894      2.93031899039081      0.37653280681959
  H          -0.52468994511664      0.79234106206837      1.51342611388986
  H           0.17264615608780      2.50892074508772     -0.92215220769684
  C           0.94947813009164      0.14802831308588      0.02878509810589
  O           1.47793267273747      0.31589503145521     -1.04873868931760
  C           1.23884163502350     -1.05079175836681      0.89456176224758
  H           0.31569584261469     -1.59063712064901      1.09518526810787
  H           1.65464141671542     -0.71326971750327      1.84257380732643
  H           1.94823748648773     -1.71160779771076      0.40388304925346
