21
Coordinates from ORCA-job TS E -30.767398952740
  C          -1.17424632731037      0.87333196986208     -1.72532571977618
  C          -0.00501828037497     -1.49964856294634     -0.60812068811893
  C          -1.32622316506187     -1.38681948304922     -0.86849083787856
  C          -1.90497421803388     -0.24649302737323     -1.47182299100543
  C          -0.63902615793642      1.43610849297169      0.33708005946624
  C           0.06881609693611      0.42455916062237      0.91504585265135
  H          -2.01004055584334     -2.12871210233503     -0.47882174914657
  H          -2.98286850410902     -0.20043791361485     -1.53959768122314
  Br         -2.02681894301615      2.41254699644872     -2.43230911391146
  H           0.36753464393833     -2.34167470719635     -0.04881763418194
  H          -0.11673281043520      0.86442779380268     -1.92993669887140
  H           0.73533207983866     -0.92218970776256     -1.12919229745520
  H          -1.65984954974418      1.62722887175019      0.62377752237064
  H          -0.39510944899252     -0.24727969501467      1.61970613150111
  H          -0.09156646317449      2.26025729064642     -0.09227983237181
  C           1.53390553400825      0.39704828373568      0.79253451858073
  O           2.12594514439075      1.02523578189145     -0.06053535340717
  C           2.24808711415220     -0.43899940143816      1.82691264974758
  H           1.83772440470137     -1.44476011919712      1.85894952429826
  H           2.10406909212775      0.01581924286532      2.80573440974669
  H           3.31106031393903     -0.47954916466908      1.60550992898519
