26
Coordinates from ORCA-job NEB E -42.118490717280
  C           0.59342363466212     -0.69377020540154      0.40668843051686
  C          -0.81049418530774     -0.84538150191186      0.49211249727503
  C           1.35645553430676     -0.78071436834594      1.69138339456443
  H           1.07643024704998     -1.32492374270933     -0.34034552961762
  C          -1.56703964812915     -1.69464643190190     -0.49906886867968
  C           0.65900722859828      1.09394504391779     -0.36479896323327
  C          -0.07153479257860      1.84837645078673      0.55908583856910
  C          -1.43266936771189      1.49824168418882      0.80346566583122
  O          -1.47125863502301     -0.04422957908805      1.27828557656926
  C           2.07108278643461      1.50129643581976     -0.68692229535550
  H           0.12377663108046      0.79123234860709     -1.25902060330293
  H           0.46016311342326      2.41288124078175      1.30981230469442
  H          -2.07786432519273      1.43703068824456     -0.06940608698997
  H          -1.91179477613294      2.00896725011487      1.63078915912999
  Br          1.16557035043297     -2.67897694553955      2.32311221109228
  Br          3.28783243538130     -0.54400812259179      1.49543365465922
  Br          0.77062902717578      0.32006537809570      3.15985459974962
  C          -1.43160079115057     -1.26773930650945     -1.96296369877092
  H          -2.61876718151499     -1.66655981970942     -0.20898696030381
  H          -1.21652939874829     -2.72609699169006     -0.40037316554948
  H          -1.81287028739853     -0.26028666236531     -2.11451513077134
  H          -2.01029454706112     -1.94362578493991     -2.58751755480477
  H          -0.39593517759083     -1.30830107959353     -2.29287454765540
  H           2.64760888056366      0.68020023896210     -1.10565729077876
  H           2.58866993586553      1.89826680683881      0.18184729763598
  H           2.02800330856569      2.28875697593963     -1.43941993447394
