26
Coordinates from ORCA-job NEB_reactant E -42.153328051680
  C           1.69134899129190      0.17431485485353     -0.32938396925447
  C           1.27182833569071      1.15315981718852     -1.14888808681847
  C           2.09086865578189      0.23188777381487      1.08128428536884
  H           1.71571122014465     -0.82374495425409     -0.74493064818238
  C           0.78444009470257      0.78897876855899     -2.52839098554294
  C           2.25557130222930      4.29589246261761     -2.74445209952869
  C           2.90820754222773      3.98416404061790     -1.63765771000642
  C           2.32700841242147      3.20983807482395     -0.48758702657450
  O           1.17153035833566      2.47064253219660     -0.87532995652769
  C           2.83320078801874      5.07193761535940     -3.87793986568374
  H           1.22664188721818      3.98312767925942     -2.86268114023623
  H           3.93254355616599      4.29584511132908     -1.48617289238232
  H           2.00485902437724      3.90489105045804      0.29703669628839
  H           3.10123173652001      2.55642171064859     -0.07648590269176
  Br          1.65488368960610     -1.46991720257638      1.95966098730178
  Br          4.09184855589489      0.45509135055901      1.30903297267604
  Br          1.21867032166193      1.63129041065839      2.11835139649814
  C           1.95456601064226      0.77522689887117     -3.51461595180589
  H           0.05673752199978      1.54132216533073     -2.83414535385644
  H           0.29892854056705     -0.18677987527161     -2.51692378779259
  H           2.45726195575186      1.73968977058737     -3.52281152575263
  H           1.59269242435360      0.56215330641747     -4.51699555515216
  H           2.67686471975102      0.01099113399557     -3.23687755388601
  H           3.86703908822473      5.34353575399842     -3.68025343298732
  H           2.25386416234346      5.98051322762466     -4.03850347841038
  H           2.79005110407729      4.48942652233277     -4.79813941506015
