25
Coordinates from ORCA-job P E -40.110526550850
  C          -1.30811443732229      0.21706510504671     -2.47689623292425
  C          -0.15562759438219     -1.71134386562137     -0.87032630203142
  C          -1.57329111214799     -1.90428672770956     -1.30859161255964
  C          -2.12846017076883     -0.96775335380013     -2.06035512317850
  C          -0.55345082247735      0.79347526786715     -1.26145336830731
  C          -0.01479422878872     -0.28721029208216     -0.30412119257818
  H          -2.10276783105290     -2.78522245669816     -0.98414935054601
  H          -3.15003410703570     -1.02971035608847     -2.40060869027473
  C          -2.16517602989249      1.28388980715153     -3.16276304684847
  H           0.13624447017652     -2.44221192222375     -0.11627656535420
  H          -0.55655708900299     -0.13586326171922     -3.19604469024666
  H           0.51594406373950     -1.81681187621191     -1.72840710879740
  H          -1.22832617245369      1.45071878008206     -0.71158807483654
  H          -0.54996246198743     -0.24453581304104      0.64965779273266
  H           0.27568256293970      1.40227460310387     -1.62418866850049
  C           1.44349717098019     -0.01277878686853      0.01979324524136
  C          -1.34898480899453      2.43481652452131     -3.73939410539748
  H          -2.89293918044733      1.67439546102750     -2.44746279504353
  H          -2.72059523789229      0.80601440031548     -3.97318368822775
  H          -0.86630601753699      3.00869064444834     -2.95291069319921
  H          -1.99436111881272      3.10721439670996     -4.29971119621014
  H          -0.58218325307103      2.05819391542792     -4.41300605450821
  F           2.23629485794710     -0.05953368617418     -1.06249499061870
  F           1.62724758578793      1.20132295217292      0.56725752156947
  F           1.94962096249651     -0.89689945963627      0.89593499064534
