19
Coordinates from ORCA-job NEB_product E -48.396224080390
  C           1.51380896725400     -0.59908829144788      1.98675010436222
  C           1.25477549023155      0.66936682140920      1.21171809972516
  C           1.08808142245327     -1.80657579924217      1.13517197003971
  H           2.59854258816471     -0.70162936362306      2.15585486909849
  I           2.11867533060407      2.40880570489602      2.16216978015635
  C           0.83555555958272     -0.60018534793139      3.36838072692761
  C          -0.63265344761673     -0.90472674733589      3.34278588667988
  C          -1.55724751752317      0.03335912235219      3.42188677675207
  O           0.67358872471734      0.78260440627068      0.19492757029875
  N           1.55979671402922     -1.57593750912103      4.27518342810463
  H           1.00329805347735      0.38120936275134      3.83471416500350
  H          -0.89853640384497     -1.94799833287947      3.25438884850000
  H          -1.31095953687481      1.07856632120548      3.52042971818073
  H          -2.60339802938762     -0.21009091566021      3.38664590928177
  F           1.20239416897184     -2.94352920424681      1.83405063556898
  F          -0.17276140752989     -1.74638380902991      0.70779151196411
  F           1.86970429245453     -1.92657551365434      0.06057871367181
  O           0.89817690586459     -2.10197947792026      5.12240459141255
  O           2.74175812497199     -1.70511142679247      4.09516669427167
