20
Coordinates from ORCA-job NEB_product E -39.411670855480
  C           3.07850840965446      1.09404131072909     -1.58035804308498
  C           1.74128208531250      0.66265203455523     -2.19529932936962
  Br          2.94502884563361      0.65498853744169      0.33466609589572
  H           3.87748752828164      0.44878466189550     -1.95648373511643
  C           1.55873896160837     -0.81952547170313     -2.29992488728864
  C           3.37178185403642      2.58013174551176     -1.83352274626855
  C           2.88701462189206      3.47237071219823     -0.72075315225878
  C           1.74930959524929      4.13685238155738     -0.77846441787067
  O           0.94278805638542      1.47379361308345     -2.57751312643299
  C           4.84704757554001      2.82965332016429     -2.10678134738908
  H           2.82061749328453      2.85225468034008     -2.74631254743692
  H           3.52341826177295      3.52655303946752      0.15289714171574
  H           1.09900296842127      4.07845900885031     -1.63542195580491
  H           1.41933598597657      4.74908078094610      0.04198382979483
  H           2.13990283059240     -1.17306663073541     -3.15240674494615
  H           0.51155307583723     -1.05106788725252     -2.47514037291018
  H           1.91244994343024     -1.33462278129192     -1.41071229962730
  Br          5.15019724757906      4.73682714575862     -2.42290007483843
  Br          5.98754289265050      2.26270697685644     -0.63146486151208
  Br          5.42689176686149      1.86483282162730     -3.72168742525057
