20
Coordinates from ORCA-job NEB_reactant E -47.174533259840
  C           2.07083729076571      0.19317097747154     -0.34937373317197
  C           1.50471126803859     -0.24643826908558     -1.47655943881140
  O           2.45986287722672      1.48345336873456     -0.14133144073221
  H           2.23786915200433     -0.50046050237687      0.46109117588080
  C           1.06884654526233     -1.65355335198954     -1.68847297507788
  C           3.88278212694982      2.90769336850138     -2.60423737316054
  C           3.17134941655958      1.81718453421217     -2.85999415326769
  C           1.68282389262176      1.74647811747128     -2.80952305281924
  O           1.20177916614815      0.43440025683671     -2.62807223365476
  N           5.31434587349051      2.89016196860639     -2.66630880882648
  H           3.47220423312099      3.86509275176241     -2.32406120423605
  H           3.69030491775395      0.90400405272850     -3.13135437653267
  H           1.27406735869801      2.04034588042554     -3.78397043065129
  H           1.28462949410098      2.42104347649309     -2.04420709845759
  H           2.91154397783910      1.55703248136175      0.70553026904915
  Br         -0.83462702639694     -1.66131170634984     -2.16196796673448
  Br          2.06044642018620     -2.38845963510277     -3.21874624109415
  Br          1.31227856642008     -2.83919224498436     -0.19254176678013
  O           5.86561986666120      1.84967062465033     -2.95055577163842
  O           5.87802458254892      3.93258385063332     -2.41314337928301
