22
Coordinates from ORCA-job NEB E -32.739967117580
  C           0.36780411937662     -0.81783645247575     -0.51360526020419
  C          -0.94790241084661     -0.47035367227854     -0.82032234923428
  C           0.63290170748927     -1.86724625665284      0.53057031879062
  H           1.07014818306141     -0.82767230275302     -1.34102056144832
  C          -1.26202512594958      0.22153418189582     -2.13714493120022
  C           0.86250922636939      0.92062347657570      0.42211398272812
  C          -0.10110801464035      0.90952492989246      1.44203304208077
  C          -1.45043173071310      1.04759476861766      1.12915338942172
  O          -1.83386081001454     -0.37434018981752      0.09939957153055
  N           2.20734908528023      0.85156753319657      0.73992528188607
  H           0.68218315674629      1.55371495654070     -0.43962577604056
  H           0.16884132475367      0.43515175256151      2.37508642284899
  H          -1.73962085082277      1.77463519285387      0.38183397510251
  H          -2.17750957957719      0.91206150826347      1.91452097954973
  H          -0.15702568559821     -1.86122150977941      1.27651160251993
  H           1.59623872366983     -1.72433920494264      1.01749947151327
  H           0.64892020485277     -2.84710122667471      0.05239123910714
  F          -0.23705799293846      0.11713998691247     -3.04366108795782
  H          -1.44037278529008      1.29393689914882     -1.97725869909553
  H          -2.15139050912972     -0.22413249356236     -2.59450309684887
  H           2.42886892490859      0.25774163355342      1.52615594710133
  H           2.83254083901255      0.71901648892432     -0.04005346215096
