22
Coordinates from ORCA-job TS E -39.084772662370
  C          -0.76800541597343      0.31716283378322     -1.19244137021267
  C           0.49731127003303     -1.98845514797092      0.01139793302954
  C          -0.83375807318467     -1.90804002890299     -0.20020167652286
  C          -1.45568846729306     -0.80104847053300     -0.82333576219282
  C          -0.16569647866599      0.96382349506533      0.81695622463602
  C           0.65045360551914      0.05017384272305      1.41080229523434
  H          -1.48447585149484     -2.63982655597690      0.25862392505978
  H          -2.53723355390816     -0.76731572999563     -0.81458058230031
  C          -1.47880846248491      1.50064399335156     -1.77421347275317
  H           0.90774394028698     -2.79694037118604      0.59261527079932
  H           0.27702150531869      0.26412397051958     -1.45656024942439
  H           1.20049014682877     -1.42649917549278     -0.57519977261838
  H          -1.19109315929680      1.03002384308416      1.13294644951129
  H           0.26891812402599     -0.64276805634977      2.14501603638711
  H           0.24881894087362      1.84344830174376      0.35155295386922
  C           2.11691706316925      0.22209250608853      1.42588202758786
  F          -0.68475541482489      2.61921499341643     -1.73331841262291
  H          -2.39917979548040      1.74257660757229     -1.23170879704439
  H          -1.71127958074787      1.32755810860758     -2.83351047438962
  Br          2.59834859805897      1.66150958220832      2.76112828051934
  Br          3.07372607932027     -1.37102085736324      2.00643334057061
  Br          2.87022497992031      0.79956231560747     -0.27828416712292
