23
Coordinates from ORCA-job NEB_product E -43.847201375030
  C           2.40373181391054      1.08442972132614     -0.18432336019222
  C           2.01075743560935      0.43282300971677     -1.46203184474928
  C           1.37115746446446      0.80867236258293      0.90868950920419
  H           3.38394148757044      0.70933432272454      0.13018741437264
  N           3.19671759399458      0.30971923565921     -2.43556865289722
  C           2.53845997056209      2.62283929388909     -0.49013322126105
  C           2.90757193965619      3.34968781407511      0.77172735283261
  C           2.21698043960955      4.37066767337961      1.24199841689410
  O           0.94639517702654      0.05113069387055     -1.82229842397647
  O           3.40746245467950      2.83986795919332     -1.57964465644951
  H           1.56330652394910      2.97776350654505     -0.84870406154801
  H           3.77992771407740      2.98155255751417      1.29194763508524
  H           1.33944724049215      4.74516357225016      0.74087764800522
  H           2.50370255434198      4.87372928547298      2.14889531833824
  F           1.91237684420457      1.05958039524815      2.13995741642023
  H           1.06978717933667     -0.24377025261663      0.90178551517701
  H           0.49067359900550      1.44944292890930      0.80415551180213
  O           2.94725122039676      0.44854628105064     -3.59927227932744
  O           4.26567092012330      0.04323507292643     -1.93850846967876
  C           4.79175095042709      2.94169272773601     -1.30399839581703
  H           5.26463330796318      3.05773287543900     -2.27700646106813
  H           5.18400464393426      2.03964985802984     -0.82544288254697
  H           5.01089152466477      3.81690910507764     -0.68688902861951
