32
Coordinates from ORCA-job P E -37.430600079760
  C          -1.56891878058200      0.19123551376957     -2.09642149157457
  C          -0.18586442946402     -1.52456083841577     -0.10054109592148
  C          -1.50769863837775     -1.86974310172979     -0.71224923583167
  C          -2.13879354963508     -1.10714872815200     -1.58737471962571
  C          -0.59354311341447      0.75097684329501     -1.05429108627256
  C           0.47346308766473     -0.30318841239443     -0.75173357780757
  H          -1.94075284202043     -2.80476735784624     -0.37955945992908
  H          -3.09205913304339     -1.41415949498526     -1.99569108424167
  N          -2.55474770036459      1.18600583079368     -2.50021349441737
  H          -0.33262085942376     -1.32984106508007      0.96724884697316
  H          -0.95679494891394     -0.03445301143229     -2.97419314787078
  H           0.48373943448675     -2.38581478661291     -0.17988127778012
  H          -1.10936053892928      0.98677439003717     -0.12414299276180
  H           1.19408885013529      0.12746799946618     -0.02713267779343
  H          -0.13608108001016      1.66338485871983     -1.43984696565071
  N           1.12984625567234     -0.70202614903591     -1.98985496361144
  C          -3.30542783392680      0.92165945937211     -3.73378709159100
  C          -3.60012704988987      2.26788185711890     -4.40799862727652
  C          -2.58296963277625      0.03605409071271     -4.74798455284715
  C          -3.44596062624070      1.55108186546907     -1.41597877792634
  H          -4.26781309908336      0.43280216599405     -3.49172186639353
  H          -2.66313929015265      2.75205585844506     -4.66954399062708
  H          -4.15366643256073      2.93313399097815     -3.75210606590772
  H          -4.18506200504824      2.11695181061486     -5.31206477516292
  H          -1.62868579577596      0.47395579429498     -5.02992960720589
  H          -3.19887134482996     -0.03989668498527     -5.64199199487393
  H          -2.41677705623889     -0.96857370812071     -4.36947656508000
  H          -2.88046370423893      2.05116353758592     -0.63229060164963
  H          -3.96342323750066      0.68500258064046     -0.97611110412896
  H          -4.19784644816326      2.24898099739854     -1.77595149013000
  H           1.56090418728173      0.10360731867040     -2.43055091584287
  H           1.85747735536430     -1.38280342458596     -1.80172354923967
