32
Coordinates from ORCA-job R E -37.370059034720
  C          -1.13264376260994     -0.36566619007343     -2.81611683985949
  C           0.89259315061022     -2.45773376654791     -2.03207898311113
  C          -0.41718213060476     -2.64189508436258     -2.20612354166536
  C          -1.41768545281287     -1.64503034950223     -2.49646794799885
  C          -0.76704273348142      2.28162636498752      0.47573220222680
  C          -1.16134893140817      1.04714931552945      0.18665803916426
  H          -0.80149005379133     -3.65247939702851     -2.13042395762525
  H          -2.43992448549527     -1.99254517525856     -2.47129553408893
  N          -1.98463668349512      0.66377083640878     -3.06128685644468
  H           1.54544174264406     -3.29228654230078     -1.85123740467843
  H          -0.09192317254111     -0.07481873302910     -2.87283631692685
  H           1.35718954386197     -1.48643424192869     -2.06340297711961
  H          -1.41421842916385      3.12494349395248      0.32436320818623
  H          -2.13836252005711      0.85273788299639     -0.23343247606408
  H           0.19434332728745      2.47706343451946      0.92245447728590
  N          -0.44695798028043     -0.09771729266078      0.46623266180715
  C          -3.42136441770716      0.45439957959572     -3.07683776424302
  C          -4.18640899276961      1.71321068049306     -2.67149577065146
  C          -3.89513045238797     -0.05627126970472     -4.44206884011691
  C          -1.47055944576110      1.88519885925332     -3.62463399704925
  H          -3.62989726628653     -0.31402128728820     -2.32434449481021
  H          -4.12575470678184      2.47794526834013     -3.44166603608722
  H          -3.79459583454008      2.11519966535029     -1.74018612854826
  H          -5.23394874502374      1.46366022467706     -2.52381682867256
  H          -3.73273895102782      0.69467344126738     -5.21201319969926
  H          -4.95605563353723     -0.28988226247447     -4.40927052992225
  H          -3.34711504887465     -0.95462706062536     -4.71653769229576
  H          -0.38318063519350      1.85596790096649     -3.63201644233308
  H          -1.77906841953079      2.74386963779132     -3.02485853796670
  H          -1.81448958969461      2.03309449995474     -4.65340142105975
  H           0.52528389656143      0.04924636642613      0.69306017979870
  H          -0.60383718610713     -0.88540879972438     -0.14577024943070
