19
Coordinates from ORCA-job NEB E -34.266499211390
  C          -0.25825758512887      0.73220279465543     -0.29318429631997
  C           0.25995061914652      0.65133906071780      1.00505592110899
  O           0.53261700721247      0.31756055820977     -1.35785674407732
  H          -0.92441814009003      1.56739410136918     -0.53006716682109
  O          -0.34100866685651      1.33976707292216      2.01793899039114
  C          -1.42411294993476     -0.92135181363709     -0.27035139956626
  C          -1.02849824606666     -1.68585630686064      0.81740918286823
  C           0.36351465103946     -1.86314358310557      0.97801696532202
  O           0.98370691061128     -0.33747227433301      1.36111541560896
  F          -2.69357356212705     -0.46154703753632     -0.28622291945620
  H          -1.08634703561111     -1.15103631055912     -1.27537485396125
  H          -1.64619856026858     -1.64027591272919      1.70469853790697
  H           0.93219282167758     -2.05638679621577      0.07514438128551
  H           0.70606263074364     -2.41761685049853      1.84041750490825
  C           1.46071773709952      1.29728508484593     -1.77613219837574
  H           1.98069189126027      0.87387633237638     -2.63277755001854
  H           2.18035791100012      1.52544135215918     -0.98316954684820
  H           0.95141682525039      2.22063389676830     -2.07630834653931
  H          -0.94881425895768      2.00918663145112      1.68164812258380
