26
Coordinates from ORCA-job NEB E -31.393492347260
  C          -0.88548717417869     -0.60986440880357     -0.37372687267888
  C          -2.13700713436034     -0.01286987580887     -0.22476494021590
  C          -0.49455619776102     -1.73616723063091      0.56812570171302
  H          -0.58936483728455     -0.80203200936100     -1.39954945123983
  H          -2.58975624148301      0.46337996628238     -1.10356813809354
  C           0.26308670290813      0.90462355595888      0.20846488342858
  C          -0.54949029655497      1.78482814486843      0.93398214241052
  C          -1.45963201319804      1.24257342581598      1.86539101061255
  O          -2.56379711138700      0.38942818907429      0.92259790140507
  C           0.96362996599277      1.45890155094040     -1.01426193503619
  H           0.87735086131615      0.23736026084091      0.79869257340088
  H          -0.87428619697433      2.68424903415483      0.42089615016479
  H          -2.13085348164784      1.92447713904830      2.37113769099864
  H          -1.09527054134715      0.45463752247876      2.51640336939935
  C           0.83370426312953     -2.39958329262677      0.22563552975368
  H          -1.28055184043973     -2.49426062396525      0.48920800181080
  H          -0.48713367893100     -1.39827196435909      1.60457717726537
  H           0.82621709203190     -2.75870370975833     -0.80143692500168
  H           0.99988395784159     -3.25135426211740      0.88165213319129
  H           1.67140705112282     -1.71677804585067      0.34232800031208
  C           2.05756193426876      0.55526761347506     -1.56898869716132
  H           1.41032990365734      2.41859236924250     -0.73869675930005
  H           0.22476064838750      1.66247638768836     -1.79296163714596
  H           2.81622190595741      0.36529511251248     -0.81244884749053
  H           2.53991257872122      1.03158300664762     -2.41976953528191
  H           1.65311988021253     -0.39778785574732     -1.89891852722085
