26
Coordinates from ORCA-job NEB_reactant E -31.443149518320
  C           2.90677435637500      0.28497854945189      0.37897737911050
  C           3.17545206324135      1.52683985818599      0.75825322205394
  C           1.63652923290805     -0.44239599785306      0.69223927242586
  H           3.65618758702634     -0.25702545176759     -0.17729792392984
  H           4.11511453483143      2.00707235126299      0.50603772715963
  C           3.78191121012512      5.08430003802077     -0.02384176167649
  C           2.73129768732700      4.40649258973600      0.40604337691822
  C           2.69156137669094      3.62800980514551      1.68814761429644
  O           2.30276173441966      2.28288638109484      1.48641767491979
  C           3.84165271107171      5.83883084852745     -1.31262144712845
  H           4.68630783230598      5.11477045625401      0.57242678296600
  H           1.82571651271183      4.35463634753944     -0.18341562780633
  H           1.92900372837582      4.03911613257504      2.35834707258448
  H           3.66775397250568      3.67353896045384      2.19203472625268
  C           1.90458028186910     -1.70044250370324      1.51727002969395
  H           1.14472213897143     -0.72901846410138     -0.24251107553555
  H           0.97213997585499      0.22597096484173      1.23971849450209
  H           2.56818615685182     -2.37476557630359      0.97959040441811
  H           0.97470962306304     -2.22472039936497      1.72612830742521
  H           2.37411440427684     -1.43824120419557      2.46251437758612
  C           4.94391039218281      5.28715396433088     -2.21699903261238
  H           4.04823882408148      6.89197194400761     -1.10121185298315
  H           2.87946690930574      5.77658964913074     -1.82356025681764
  H           5.91213478470580      5.35700338422581     -1.72590813146881
  H           4.98820451243634      5.84786784258572     -3.14753203066180
  H           4.75116745648467      4.24247952991915     -2.45084732169255
