26
Coordinates from ORCA-job NEB_product E -31.449444324050
  C           2.63942354061015      1.95052652888903     -0.34723508740413
  C           1.39377170081256      2.20553919364865     -1.15313077391712
  C           2.40823217068086      0.84885646970044      0.69231793117820
  H           3.38749285882512      1.60075242943650     -1.06984991850733
  H           1.48626605669477      3.05510756739315     -1.85923355801212
  C           3.16519600460105      3.25553020428938      0.29747522495105
  C           2.04424581435570      3.94424234000136      1.02063040221521
  C           1.98693643065566      4.09801396334625      2.32968322048308
  O           0.38145356304403      1.56453892763768     -1.10677487804570
  C           3.81608677057967      4.22117080677190     -0.70536633062747
  H           3.93009903865809      2.97523269399951      1.02879745448253
  H           1.24801832831347      4.32125187610740      0.39171180887505
  H           1.16328105530557      4.59630356311117      2.81173242425700
  H           2.76541451192064      3.72981783975909      2.97867291634742
  C           3.69640629029466      0.15629825984048      1.11729691723375
  H           1.72827004025217      0.11119102156813      0.26155713302751
  H           1.91196130280852      1.28200118702698      1.56298031454380
  H           4.18493572636763     -0.30529503946219      0.26131301443297
  H           3.48050843429051     -0.62114990451375      1.84589616870367
  H           4.39273836227058      0.85841933640844      1.57050317981257
  C           5.13394029065768      3.70374713685950     -1.27059915366558
  H           4.00625990464295      5.16112202270668     -0.18100400644490
  H           3.12824923321465      4.44049068436315     -1.52342791953008
  H           5.82596199229855      3.46275200925993     -0.46654775193964
  H           5.59306801465354      4.46243839491223     -1.90000527236331
  H           4.98718256319118      2.81230048693889     -1.87589346008641
