19
Coordinates from ORCA-job NEB E -33.812778703440
  C           0.75204218548495     -1.27865153204712     -0.07286044308477
  C          -0.21938083880021     -0.50996030358400     -0.74018189462274
  C           0.31372894221162     -2.27035307885874      0.83560309903297
  H           1.64682714870486     -1.53007432938658     -0.63201737395385
  O           0.16222090260457      0.00262129356028     -1.93305564777701
  C           1.30316778262588      0.16479995980401      1.26455696783425
  C           0.09712694609854      0.42912834572893      1.89086493667696
  C          -0.92669248637554      1.01077383586252      1.11387675301538
  O          -1.27584557967344     -0.10051515567626     -0.15567767143569
  I           2.90223865177544     -0.66164936264988      2.37816427403622
  H           1.68162345883853      0.84395102087768      0.51214002255396
  H          -0.17967932450249     -0.15126657149096      2.75832292529683
  H          -0.66153883347214      1.85617360755126      0.48858888104822
  H          -1.90457259689999      1.09825199515440      1.56576934589980
  N          -0.03542623684695     -3.05871928324083      1.58886173596123
  C          -0.74770491358606      0.87402026674845     -2.58364859980058
  H          -0.47056408280298      0.86909142622739     -3.63531812192403
  H          -0.66348582818810      1.88843861208388     -2.18557148356089
  H          -1.77408529719650      0.52393925333554     -2.45841770519629
