26
Coordinates from ORCA-job P E -31.101241734830
  C          -1.24687252043321      0.29622028078078     -2.41699095497584
  C          -0.02712536435975     -1.73242579456342     -0.98951840320506
  C          -1.19525625459274     -2.06511260367651     -1.86147471667108
  C          -1.75792811220505     -1.10955351890818     -2.58342023926239
  C          -1.17743572343529      0.55991920570217     -0.90271136370131
  C          -0.21058171260283     -0.40474305363102     -0.20036996906481
  H          -1.52699772212349     -3.09213158066997     -1.90209048028128
  H          -2.58864298796928     -1.29721952037174     -3.24506807344875
  N          -1.97111602539521      1.34532849408395     -3.11968441578215
  H           0.18789816867913     -2.54821270303817     -0.29746665254722
  H          -0.21744049770432      0.34333294202582     -2.80229928491671
  H           0.85142015337297     -1.61206164002362     -1.63659805911711
  H          -2.17231406152618      0.43422293490038     -0.47711522749986
  H          -0.61970012542301     -0.64703082830333      0.78712079522847
  H          -0.84951873348497      1.58238275960416     -0.71952007509550
  N           1.04720935611382      0.28365550138865      0.04557468570004
  C          -1.76114670215005      1.29514286302313     -4.55061661774638
  C          -3.37933983602685      1.44404851851336     -2.80018980884792
  H          -0.69188258043543      1.30648983945652     -4.75944132372161
  H          -2.20946319862088      2.18022173269215     -5.00158255090006
  H          -2.19903334398078      0.40520694176993     -5.02876640776277
  H          -3.50566339912247      1.55575642592756     -1.72659451344884
  H          -3.97112576635484      0.57979919784630     -3.13762856438540
  H          -3.77772452361306      2.33606640618357     -3.28384387668765
  H           1.46203496726544      0.57643010290597     -0.83357059103473
  H           1.70582654612834     -0.33201290361845      0.51074668917593
