26
Coordinates from ORCA-job P E -36.111401613280
  C          -1.17965582250312     -0.18615399570716     -2.75673663097667
  C          -0.64801938762909     -1.40667320139990     -0.38612489426741
  C          -2.02752378086145     -1.51639855124154     -0.94819654041121
  C          -2.29358764294140     -0.93480624955422     -2.10808044061384
  C          -0.53356825334796      0.76500390892275     -1.75149059921243
  C          -0.14572904449031      0.05526518416400     -0.43403356272043
  H          -2.77392115521431     -2.07262238915933     -0.40344849793793
  H          -3.26340261163346     -0.97602883276592     -2.57586942362932
  I          -1.84104007795872      0.92422155723639     -4.50884224771193
  H          -0.60705279112300     -1.76737446046497      0.64182273912090
  H          -0.43452986087471     -0.88442569357033     -3.14622263582526
  H           0.02932601338997     -2.02905067633707     -0.98035127708031
  H          -1.24694498305672      1.56064155932556     -1.52737484818656
  H          -0.63245897936308      0.58759154922425      0.38901619335435
  H           0.34731835984604      1.23166453117979     -2.19696659114640
  C           1.34309090791178      0.08154199535421     -0.19484376804628
  C           1.85538931681115      0.56081917768539      1.00305069929598
  C           3.21961946520166      0.57227275291229      1.23647679122380
  C           4.09275217525221      0.10236052155260      0.27164213051283
  C           3.59324886762693     -0.37960857328903     -0.92639957942294
  C           2.22986784044304     -0.39066689248944     -1.15595456620782
  H           1.17953659255161      0.93108383375081      1.76117565991788
  H           3.60062138762131      0.95036448332706      2.17379612458326
  H           5.15754169181132      0.11176639770620      0.45077531160485
  H           4.26835159179100     -0.74820797395787     -1.68493313252578
  H           1.85533018073931     -0.77004996240450     -2.09607641369132
