26
Coordinates from ORCA-job R E -36.026880367120
  C          -0.05128523494169      0.00895149315831     -2.72246922732581
  C           0.03378188305705     -2.89300286318138     -1.95179229378827
  C          -1.00826665203202     -2.07724603801409     -1.83092739938596
  C          -1.08612330803812     -0.70562658338142     -2.29965067720673
  C          -1.36256239769291      1.43271176279659      0.68482144161626
  C          -0.51692196587915      0.42318562844279      0.85055982522226
  H          -1.90735121445095     -2.43573585816348     -1.34635320738030
  H          -2.07029817287886     -0.25848298553316     -2.27259151904960
  I          -0.23475512959218      1.99439540074489     -3.36646019234038
  H           0.00763281555240     -3.89903627218640     -1.56988355473093
  H           0.96107113922985     -0.35124058419452     -2.75702499087839
  H           0.94832979621600     -2.59423633267801     -2.43442433713792
  H          -2.35877422118101      1.40046433219468      1.09352342057502
  H          -0.84447348389750     -0.45688333862217      1.39136335794612
  H          -1.10832908690551      2.32307195263862      0.13571230006598
  C           0.84296155954986      0.34304723089643      0.32988188812234
  C           1.52428571270067      1.45261817567214     -0.17312619849108
  C           2.79575966906357      1.32117264807643     -0.69695291774117
  C           3.41779269201406      0.08322095663286     -0.72468516500029
  C           2.76289853303932     -1.02264745767118     -0.20763899185543
  C           1.49199894857903     -0.89208634519211      0.31855012582603
  H           1.05946496447205      2.42597491546475     -0.14841042946183
  H           3.30576214250499      2.18943213298244     -1.08865128702985
  H           4.40995292954948     -0.01720772595123     -1.13988511014942
  H           3.24598697363425     -1.98935336785048     -0.21481480818020
  H           0.98369110832733     -1.75879087708132      0.71728994775955
