26
Coordinates from ORCA-job TS E -36.010424202800
  C          -2.09468349039466      0.82192836071331     -1.64121049887626
  C          -0.69471497344296     -1.56363124248548     -0.95692741286998
  C          -2.01650139799316     -1.55588108867311     -1.24665772202075
  C          -2.71024215227708     -0.39144946931055     -1.64476618757403
  C          -1.59401325649669      1.00344709356207      0.50086355206015
  C          -0.74500888139428     -0.00191746633154      0.86460558553941
  H          -2.61655971587421     -2.42640774487955     -1.01841425712758
  H          -3.78603285064373     -0.44802628799800     -1.72752109351275
  I          -3.18268751384261      2.56943670245703     -2.12922591637930
  H          -0.22974497473945     -2.44223417085932     -0.54170880973609
  H          -1.04561050803183      0.93973359490288     -1.84291994934034
  H          -0.01601065349165     -0.83334584566097     -1.35637679102128
  H          -2.62910616480080      0.95244237286096      0.79397367031972
  H          -1.14830932382484     -0.85431544036731      1.39250827067199
  H          -1.21528986072256      1.99241160490463      0.30655510096584
  C           0.70897204553965      0.11387585165693      0.87909960728625
  C           1.39517318222221      1.11858096013416      0.19427522289660
  C           2.77389511861258      1.19202088934383      0.24009903242610
  C           3.50075480784469      0.26748657441228      0.97176721692950
  C           2.83515973026888     -0.73528922529444      1.65760029339723
  C           1.45745104544319     -0.81332645824734      1.60722115407712
  H           0.85101221452289      1.85040767091951     -0.38425747205945
  H           3.28613132252616      1.97599101865695     -0.29887866028546
  H           4.57826566221417      0.32778324684578      1.00608180433441
  H           3.39401615679732     -1.46054612952136      2.23109042348133
  H           0.94368443197877     -1.59917537174138      2.14312383641764
