22
Coordinates from ORCA-job NEB E -38.852623739440
  C           0.52764058608576      0.01494706280793     -0.65838471533774
  C          -0.59568867462418      0.32148989240659     -1.42807827233078
  C           0.54894318768007     -1.33358728449897      0.02105052653481
  H           1.49243748299638      0.32742330533770     -1.04665465823429
  I          -0.36429663265845      1.87725848242104     -2.92011034434808
  C           0.13346090574811      1.31903380499090      0.76498422624723
  C          -1.15513590311538      0.97762540016821      1.17589812510655
  C          -2.20336160388955      1.10246224937924      0.22544661658280
  O          -1.77653257882736      0.11579702436855     -1.00810175359263
  N           1.21368913503119      1.13583862488489      1.71357296139813
  H           0.30467477080004      2.21260179698867      0.17101472909365
  H          -1.25301083543008      0.28833812964571      2.00199994073611
  H          -2.26664108238105      2.04724162918730     -0.31106871121715
  H          -3.17430955121054      0.71895906384802      0.51222046550703
  C           1.04458454226446     -2.38820644342598     -0.96779350310800
  H          -0.45583802038924     -1.59276974065044      0.35829952512543
  H           1.21100334159051     -1.32340214726364      0.88731664186326
  H           0.37756291905215     -2.45204865401934     -1.82448058198806
  H           1.08051603607561     -3.35952924688609     -0.48222905507641
  H           2.04312493254869     -2.14417963462502     -1.32323797050141
  O           2.17030833823828      1.86360048021740      1.58754344153894
  O           1.09686870441458      0.27110620471734      2.55079236600059
