27
Coordinates from ORCA-job TS E -41.471676085010
  C          -0.45254260700869     -0.29726837661923     -0.89566354832464
  C           1.00041980685864     -2.16579787755306      0.76674162456792
  C          -0.34004911123093     -2.26622221824104      0.52793768824244
  C          -1.05974107710475     -1.35973493213236     -0.25991853321605
  C           0.10240674181523      0.63956222275901      1.17027997063972
  C           0.98543541467738     -0.17527871238357      1.82522047903398
  H          -0.91781900229083     -2.95881066650965      1.12539994034723
  H          -2.13629687131878     -1.43049299571102     -0.24106999527338
  N          -1.08372406007460      0.64947854342656     -1.62982895687686
  H           1.46066058093474     -2.85749784227696      1.45353312338274
  H           0.60928343701859     -0.34077464607857     -1.08056437163281
  H           1.66404516105853     -1.73766466917471      0.03624485703432
  H          -0.92674520512902      0.66329534305650      1.47334553461534
  H           0.66750840556195     -0.72081769523355      2.70209935568334
  H           0.45134131887519      1.45884424542732      0.56663148141246
  C           2.42533048470653      0.15463412255111      1.81416554063548
  C          -0.33157353020616      1.76559809804915     -2.14698122888435
  C          -2.50491831895823      0.86118578442570     -1.49714327037513
  H           0.72091935599015      1.50193484202297     -2.22914525559032
  H          -0.42221258294136      2.64741780197213     -1.50176430762725
  H          -0.70154563860431      2.02853818596386     -3.13947080058635
  H          -2.77411701420104      1.22213537176827     -0.49831036963190
  H          -3.04154329162620     -0.06712883808023     -1.69077799127812
  H          -2.82329596820771      1.59893667938145     -2.23054202408089
  Br          2.74632372409313      1.78034822322379      2.98066836669636
  Br          3.57589492839522     -1.23555884129656      2.54039184700553
  Br          3.10655491891733      0.64113884726268      0.05852084408122
