27
Coordinates from ORCA-job P E -40.742197246020
  C          -0.86109975643655      0.56231654649660     -2.21397031270069
  C          -0.80893435302023     -1.71686278971041     -0.27211390973448
  C          -1.04590276327297     -1.87519414543001     -1.74181922177789
  C          -1.05844975649642     -0.87354646339228     -2.60346659000098
  C          -1.06309497740388      0.74985475298796     -0.70541386686232
  C          -0.28695898705225     -0.31979363594945      0.06627351740651
  H          -1.21180837480213     -2.88757265995133     -2.08110144062979
  H          -1.23375328846991     -1.04588971467205     -3.65509477353521
  C          -1.77272598534934      1.48504769676255     -3.01803516366643
  H          -1.74306552452635     -1.90716421992763      0.26478914329560
  H           0.16441734651790      0.86129146996989     -2.47429124839036
  H          -0.08087954842322     -2.46143086232994      0.05821137834160
  H          -2.12409224208677      0.63876019304280     -0.47133058693448
  H          -0.40570544375795     -0.13754536608252      1.14192072958776
  H          -0.73510129070140      1.74019209289207     -0.39220227339433
  C           1.20979813213726     -0.24565591779366     -0.19103799389005
  O          -2.51593160822924      1.08717014267405     -3.87676352036635
  C          -1.66705877760794      2.94824183166606     -2.66202129439595
  H          -0.64410654973125      3.22808537888362     -2.42778603214646
  H          -2.28794351841517      3.14113833508086     -1.78861909830092
  H          -2.04259154923968      3.55157972067195     -3.48476889477420
  O           1.95449550008922     -1.18833727191459     -0.20890156491688
  O           1.62940875508564      1.01838931635108     -0.35122400237617
  C           3.02623979902820      1.18850416009304     -0.54935167718827
  H           3.19489798649689      2.25931154185664     -0.63025635656632
  H           3.34492056971560      0.67878973341958     -1.46094233565198
  H           3.58211620595195      0.77473013430513      0.29405738956903
