22
Coordinates from ORCA-job NEB_reactant E -39.257605050090
  C           1.81554819271727      0.96617619028805     -0.62019847855367
  C           1.93531816253020     -0.32420775139914     -0.92776506827893
  C           0.69712826262747      1.84477790584917     -1.07744880865976
  H           2.56698634818870      1.41924200093788      0.00878964755359
  N           3.02813386213368     -1.12270233168958     -0.57627771728924
  C           3.68145451156050     -0.90086344040261     -3.67907588794249
  C           2.60198097656938     -1.60390753232605     -3.37378818294712
  C           1.27846964276562     -0.96206841512080     -3.09383156784310
  O           1.00380561863561     -0.99687526316397     -1.69984559567635
  C           5.05513784864711     -1.42441818986947     -3.80296988376687
  H           3.62144117669448      0.17251753734447     -3.81676478413570
  H           2.64749810519117     -2.67148015017284     -3.20920173704804
  H           0.46505170583028     -1.52452760570546     -3.55847341797271
  H           1.26882623611441      0.07353117762676     -3.45749560211510
  H          -0.06965722688895      1.25964052719582     -1.57825882634076
  H           1.06335386318187      2.61287232867935     -1.76074407116205
  H           0.24690131924957      2.35130797411649     -0.22475486146435
  H           2.77704620031202     -2.08959865093266     -0.41993270229025
  H           3.58589003273376     -0.74679285688197      0.17641496548360
  Br          6.15574973655155     -0.63645165520229     -2.36308614627109
  Br          5.21086404739203     -3.34874229815073     -3.66544055477109
  Br          5.84227137726223     -0.87832950102041     -5.52495071850851
