21
Coordinates from ORCA-job NEB E -37.248684830200
  C           0.97576181162059      0.41390202210620     -0.15441730963433
  C           0.37379923026585      1.03942764357885      0.94357969952201
  C           0.68154046435524      0.99745083731152     -1.49467950804947
  H           1.98826596761216      0.04464689155572     -0.04720504027448
  N           0.91452551167884      0.85979021996584      2.20328100837167
  C          -0.22204277886837     -1.34820069714817     -0.11374609351321
  C          -1.46771667555335     -0.73245072626101     -0.26703492180157
  C          -1.95487861342935      0.08939497079516      0.74839808699038
  O          -0.82239474627514      1.48308408155181      0.86459563976657
  N           0.25990288881613     -2.22310692169375     -1.05060025213919
  H           0.10536367053455     -1.57785763142911      0.89423799407713
  H          -1.85269750451793     -0.61718942664820     -1.27009945978443
  H          -1.80346402394246     -0.22082733660849      1.77352437388908
  H          -2.87300897513180      0.62998821132611      0.57816789380898
  F           1.59232417859026      1.97278080421075     -1.80244538433211
  F           0.80412035674736      0.09733576020094     -2.51130486285031
  H          -0.31808313056646      1.44732458659312     -1.55267918462764
  H           1.91528885535976      0.78650453600364      2.27527905414264
  H           0.47090073471236      1.39501474516479      2.93315893932921
  H           0.01583111857174     -2.01763215768879     -2.00820521413515
  H           1.21666165942002     -2.51938041288694     -0.94180545875579
