21
Coordinates from ORCA-job NEB_product E -37.291589307730
  C           1.41306517336985     -2.07790437148753     -0.27830098467867
  C           0.98905025264765     -1.14225515228124      0.85427856025272
  C           0.94218542504949     -1.45884123626693     -1.58915894427423
  H           2.50106523261240     -2.18193798603531     -0.31590450171469
  N           1.85292389487103     -1.10704367827695      1.88939475149386
  C           0.81530321119886     -3.48622740674114     -0.00910688280054
  C          -0.64047751299478     -3.54554721683028     -0.39266710118202
  C          -1.63222514279180     -3.51818458440640      0.47650665339979
  O          -0.05017112131685     -0.52586516119684      0.84141610945468
  N           1.65226450679965     -4.47335276054027     -0.67540366198040
  H           0.90530907443135     -3.67514822103528      1.06906845734538
  H          -0.83493077673323     -3.63988165775676     -1.45323576390439
  H          -1.45503022625583     -3.42650328742012      1.53525229722190
  H          -2.66168877087759     -3.57032903847758      0.16697012274730
  F           1.73306731679290     -0.40224369498135     -1.90135270392607
  F           1.05269122135039     -2.31354341425641     -2.63737421447039
  H          -0.09710238633511     -1.10499431904039     -1.53661686194997
  H           1.63629126811582     -0.52014258923273      2.67832429615784
  H           2.72612470352351     -1.60261103313104      1.87915846975914
  H           1.61904076231615     -4.34529404533300     -1.68155115024885
  H           1.31434389422613     -5.40754914527246     -0.47239694670238
