24
Coordinates from ORCA-job NEB E -40.760877806350
  C           0.88210689000504     -0.27844098001136     -0.42774111497970
  C          -0.46844810719369     -0.67954624456303     -0.57208076331928
  O           1.76989816377952     -1.24011197153850     -0.03797401968640
  H           1.26358690261677      0.44042914920618     -1.15527023741740
  C          -1.38773916577479      0.12079987339176     -1.46139688005452
  C           0.57984291991957      0.79476916698098      1.14727545097857
  C           0.17098919332735     -0.17744100786281      2.07406695290010
  C          -1.06797215962082     -0.80871724868276      1.82386761001135
  O          -0.96360855369678     -1.48758158324331      0.30424320883724
  C           1.86796982408845      1.54323221891885      1.38377240258937
  H          -0.17487695400100      1.47831635264194      0.76787521453154
  H           0.93543495248745     -0.72502538910720      2.60473421734610
  H          -1.91892584683111     -0.15815447310745      1.64395603268202
  H          -1.31436245688815     -1.66711881211000      2.43386595427288
  H           2.63768547350695     -0.85945926856068      0.14416915927050
  C          -1.56979410436801     -0.58595641156484     -2.80697392677587
  H          -0.97357254358895      1.11738031242367     -1.63107892438564
  H          -2.36039007976116      0.21358068490869     -0.97313377854919
  H          -0.61442576236192     -0.67546026342111     -3.31803837345123
  H          -2.25385560039437     -0.02518761835393     -3.43943341675466
  H          -1.97289608756066     -1.58315398929634     -2.65227362162360
  F           2.92722567925386      0.72351686384694      1.60418555929499
  F           2.20514713228420      2.29004295302708      0.29918916341467
  H           1.80098029077224      2.22928768607724      2.24419413086816
