24
Coordinates from ORCA-job NEB_product E -40.800719138200
  C           2.31273272174319      2.30676823474371      0.33915294133497
  C           1.16478927711317      2.86489191475101     -0.51814974899561
  O           2.01636027452628      0.97250637837803      0.69634846111497
  H           3.24536161368213      2.34718912879573     -0.24774302798585
  C           1.18006706901670      2.41298170961376     -1.95922854734955
  C           2.50323936097592      3.09336547470276      1.64670560520472
  C           3.63936753682379      2.50436188099904      2.43407416141279
  C           3.50292887360834      1.97026658987612      3.63086175683141
  O           0.33437929179858      3.61629759125780     -0.07816255190831
  C           2.78478683529392      4.56481509481267      1.33446825053660
  H           1.57586881961755      3.03936926481160      2.22232177942625
  H           4.60453603595970      2.55325896963944      1.94832042997688
  H           2.54640133173688      1.91853870098177      4.12284591826034
  H           4.34143314423911      1.55805476598074      4.16448230452134
  H           1.89835764624077      0.44088243339197     -0.09865968652123
  C           1.92481053811504      3.47626188766478     -2.77570924121846
  H           0.15441182784994      2.33454064680500     -2.32188228516697
  H           1.68006382626222      1.44934608365748     -2.06906975645300
  H           1.41510330920615      4.43276778293033     -2.69502272325999
  H           1.95587433445863      3.18469830796607     -3.82219762332525
  H           2.94426540877964      3.59827363988151     -2.41665420961637
  F           3.16890208722809      5.22921050447787      2.44753521804855
  F           3.81519960266090      4.68571541815968      0.45256011396935
  H           1.92065923306336      5.09413759572113      0.90920246116240
