17
Coordinates from ORCA-job NEB E -38.651322754620
  C           0.98357821890111      0.61045891813270     -0.20270092388986
  C          -0.05440943269356      1.44468082509181      0.20018756984974
  C           1.00481589195140      0.10095692624653     -1.62109251466662
  H           1.98821728683141      0.85636509084784      0.12429022680853
  Cl          0.28618253842790      2.47725063963593      1.58690974859737
  C           0.44667921648053     -1.03075087835206      0.82224616506307
  C          -0.87781986612043     -1.17289698928346      0.45972334086380
  C          -1.78868797550016     -0.11993493764735      0.80008500523296
  O          -1.28192445138512      1.16314660723727     -0.01981242105942
  H           1.16153118126235     -1.76985179970470      0.49175230526149
  H           0.68077977623398     -0.58201411694091      1.77831496801130
  H          -1.13877945308459     -1.81934995793447     -0.36440736148524
  H          -1.73687067457010      0.24543405310725      1.82415326239098
  H          -2.80627920443947     -0.22722731956558      0.44444178937315
  F           1.81985371303357     -0.95849090914000     -1.75769368800448
  F          -0.17703173511472     -0.26194476092693     -2.11687969153353
  F           1.49016496978590      1.04416860919613     -2.44951778081325
