17
Coordinates from ORCA-job NEB_product E -38.697086556570
  C           1.71617131134034     -1.35315607589560      0.98571465782017
  C           0.69007470435693     -0.24777476848536      0.90800199155913
  C           2.00908688843277     -1.90304151049586     -0.41250231576902
  H           2.66273301550007     -0.94280171996206      1.35436750072537
  Cl          0.60226046248871      0.63521977370646      2.42508443914016
  C           1.22886998509625     -2.45440493257460      1.95814672396381
  C          -0.20725493693469     -2.82700962145316      1.72748537178271
  C          -1.16122765517264     -2.61326283274323      2.61306068757208
  O          -0.00924611100947      0.03736402756075      0.00033620877076
  H           1.86958660891038     -3.33033850848338      1.82863905039871
  H           1.34971939140799     -2.08357378391760      2.97663761935853
  H          -0.43327143815000     -3.28835034281341      0.77729762412729
  H          -0.96026498755078     -2.15463880645955      3.56773830524672
  H          -2.18239388842533     -2.89288114649734      2.42319163716888
  F           2.94214732017077     -2.86850528123344     -0.35101245727760
  F           0.95681955992007     -2.43285271454190     -1.03130308951715
  F           2.50498976961862     -0.95279175571073     -1.21478395507055
