17
Coordinates from ORCA-job NEB_reactant E -38.676581385290
  C           1.65626334064160      0.06609338661285     -0.12751054448005
  C           0.96396727030547     -0.38378971400715      0.92780018511156
  C           2.16373098542365     -0.87638446876430     -1.16433975080199
  H           1.87727160256014      1.10664715113093     -0.27000937953753
  Cl          0.39428757071506      0.75063196054934      2.10048608731505
  C          -0.11550917952539     -4.44129251151534      3.09328743785869
  C          -0.22266854466418     -3.59681471404679      2.08640001119516
  C          -0.06653461584721     -2.11357815789102      2.21854694193621
  O           0.70242040753948     -1.66232936384744      1.10416345367040
  H          -0.25561628174496     -5.49913490219910      2.95892103200188
  H           0.10527379738360     -4.11032398554050      4.09484359748613
  H          -0.43644184144155     -3.93339957300430      1.08276908403366
  H           0.43722386971883     -1.85002901613664      3.15534609246430
  H          -1.05226460642052     -1.62760321740625      2.19802369873093
  F           3.05784949571425     -1.76271668110335     -0.68718674977573
  F           1.19237047878320     -1.61178571997491     -1.73641162934483
  F           2.77717625085851     -0.22209047285602     -2.15962956786383
