15
Coordinates from ORCA-job NEB E -30.582948255790
  C           0.90652149404546     -0.65576570002488     -0.23317168663054
  C          -0.46230533328631     -0.84068762191811     -0.79999425671120
  Cl          1.06720241419245     -1.94269299756441      1.05767468165384
  H           1.68797265512808     -0.88741683190793     -0.95960925664821
  C          -0.74391640043635     -2.04679100467819     -1.43379941956227
  C           1.06149272000800      0.75421416451283      0.34437136808449
  C          -0.14665294717487      1.08521070090818      1.12134007874944
  C          -1.31247449360870      1.19313937020956      0.23625727515967
  O          -1.46427574652485     -0.00296265676850     -0.61210416173499
  I           2.90331780864990      0.95900624366873      1.46665418599677
  H           1.16559420762873      1.43355220413532     -0.50978610901509
  H          -0.26041909164914      0.64906742831744      2.09979936756694
  H          -1.22712773662948      2.02518503108076     -0.47720516282776
  H          -2.26023815699496      1.27187249427212      0.76994683152445
  N          -0.91469139334796     -2.99493082424291     -2.07037373560554
