15
Coordinates from ORCA-job NEB_reactant E -30.640272124410
  C           1.67743525831135      0.06587573439763     -0.04776756382948
  C           1.41188810589875      0.86952219279858     -1.09102389755298
  Cl          1.72356901705987      0.46144580049377      1.62918361180383
  H           1.89989034087628     -0.97188682977049     -0.24174639200198
  C           1.44507916862327      0.22122788358699     -2.36487474740645
  C           3.01231081889998      4.63798628769689      0.26490491299959
  C           2.55863182712844      3.40041256771969      0.27610943354353
  C           1.14660776288304      3.05239758736691     -0.09610321470990
  O           1.09207961793428      2.17491726535704     -1.20914555204449
  I           4.97853362518226      5.14200928971295      0.80193881307779
  H           2.40982107946034      5.49039034857175     -0.00066289014240
  H           3.19734219088681      2.57094334497996      0.54281048076363
  H           0.60774025811537      3.94272098507478     -0.43097789089374
  H           0.62413614921966      2.62168391152589      0.76475191340504
  N           1.47453477952026     -0.30524636951234     -3.38039701701199
