19
Coordinates from ORCA-job P E -24.671161907430
  C          -1.34188938420191      0.35384465212235     -2.38528932621142
  C          -0.04335832537837     -1.65359411878625     -1.03767654765966
  C          -1.44085085439627     -1.90946479094362     -1.51037646695430
  C          -2.06423975988726     -0.94130262098620     -2.16336940305040
  C          -0.72218064496907      0.81623284228993     -1.05230614468079
  C          -0.00961973218791     -0.31394485934901     -0.30165330505815
  H          -1.89388133042492     -2.86577104062379     -1.30363661641292
  H          -3.07160569740947     -1.04324444215826     -2.53454753895935
  C          -2.24935245383120      1.43593352691105     -2.95883745814846
  H           0.31606317846716     -2.44874258105993     -0.38351209095758
  H          -0.52197874505248      0.17226076471062     -3.09368257605725
  H           0.62632704646881     -1.59969832795905     -1.90298456641649
  H          -1.52507797326934      1.20423669991366     -0.42083622168368
  H          -0.44084093752688     -0.43807067745099      0.69341567268906
  H          -0.03861784179082      1.64234429888367     -1.25187051480913
  Br          1.88001840389827      0.15378730323986      0.06146441610039
  H          -2.65056971343979      1.12175303114267     -3.91957313410429
  H          -1.69791268495555      2.36233584911449     -3.10344612249666
  H          -3.08109255011299      1.63236449098880     -2.28511205512891
