19
Coordinates from ORCA-job R E -24.578617860590
  C          -1.35032485438154      0.02557772130464     -3.05468961951876
  C          -0.18716800626686     -2.43782088350903     -1.72596599642432
  C          -1.37558877824446     -1.89515023704015     -1.47883202939305
  C          -1.91418318856863     -0.68996208201401     -2.08312918283288
  C          -0.98621263246357      1.11391286892610      0.56790301007139
  C           0.13950930668783      0.48101376579307      0.31765886385309
  H          -2.02161359079361     -2.36597726241296     -0.74727463964005
  H          -2.86978614718689     -0.36547690346252     -1.68688557889661
  C          -1.93061239362802      1.27305961551372     -3.62235297799252
  H           0.13626528221533     -3.33430967798777     -1.22467949768448
  H          -0.40460853371040     -0.27671462824270     -3.48179850809513
  H           0.50629077814076     -2.01553820957445     -2.43347864534407
  H          -1.63537584454375      0.78115095000611      1.35925939153122
  H           0.49984978755772     -0.37518877002824      0.86351514537025
  H          -1.30725309637776      1.96785573057793     -0.00323590364366
  Br          1.32670691850013      1.02066283717117     -1.04747077675571
  H          -2.05104432878610      1.18005810795921     -4.70147490561927
  H          -1.25052257716198      2.10763200669724     -3.44659690314295
  H          -2.89580810098821      1.50184505032265     -3.17604124584250
