19
Coordinates from ORCA-job TS E -24.563371226050
  C          -0.40866054351260      0.36269092613111     -0.96115007454696
  C           0.97361173233203     -1.83393459065992      0.28428243197493
  C          -0.37101366661698     -1.82095008802383      0.11986636909784
  C          -1.04721848944413     -0.75866879963246     -0.51685874054185
  C           0.33840078829114      1.05128494171302      1.01907546512886
  C           1.15441718359272      0.12353964229786      1.57638589093638
  H          -0.97627842100717     -2.54629253882675      0.64772402410731
  H          -2.12778867190137     -0.74827606241467     -0.45447866085235
  C          -1.16484284943667      1.51815752554080     -1.53671773272447
  H           1.44729057208559     -2.59462975007743      0.88371713126258
  H           0.62651653303556      0.30480702941912     -1.26310356192648
  H           1.62544928065670     -1.30809400586633     -0.38908990844245
  H          -0.67040791056017      1.14612299013939      1.38004795609793
  H           0.86752106350944     -0.53032657585059      2.37974197247127
  H           0.75409555251013      1.90304473628479      0.51097679160189
  Br          3.04863536537925      0.30039473379495      1.41479005225313
  H          -1.28533032367615      1.37387931647304     -2.61156102166901
  H          -0.63019928108026      2.45414187472075     -1.39076645300116
  H          -2.15419791415706      1.60310869483715     -1.09288193122740
