26
Coordinates from ORCA-job NEB E -42.777910569220
  C          -0.11642507325503     -0.38847279495320     -1.08418757111452
  C          -0.71656476307928      0.89213994173736     -1.04690097583673
  N          -0.90696062372690     -1.52925109409345     -1.36643666531632
  H           0.86112686864700     -0.43824339891950     -1.54570298526148
  O           0.07250444007046      1.87672565177451     -1.51534016857975
  C           0.13676392525634     -0.76193444169710      0.98402182485083
  C          -0.55183142556335      0.28755005824821      1.57350180782149
  C          -1.89090143568359      0.48829323388030      1.21469862099351
  O          -1.77957146885143      1.16728148651562     -0.43559775273242
  C           1.62022052757321     -0.91838141047628      1.16294243315959
  H          -0.40526172077060     -1.69558804271204      0.89346690884647
  H           0.01686600842907      1.13652140659244      1.93427381282302
  H          -2.44439833044156      1.30776888365619      1.64853359150974
  H          -2.48579744106442     -0.37885916931588      0.95625035869096
  O          -0.34124473414545     -2.45454683243381     -1.92100424682009
  O          -2.07826055204776     -1.54176987063421     -1.03934720913722
  C          -0.40584600853787      3.20359942292878     -1.35554001245638
  H          -0.52654982025589      3.44487838366298     -0.29725726849524
  H          -1.36674004707702      3.32794145406871     -1.85898171958878
  H           0.34522879860305      3.84585463553993     -1.80774475666718
  C           2.14813363952204     -2.23028183604375      0.59405222564290
  H           1.83199277478534     -0.88329834765444      2.23634755022754
  H           2.13922544951089     -0.07049441774827      0.71005927584221
  H           1.69942155039461     -3.07452724420421      1.11235007921382
  H           3.22659612301789     -2.28852255197223      0.71729940385826
  H           1.91827333869026     -2.32438310574667     -0.46375656147421
