26
Coordinates from ORCA-job NEB_product E -42.822915000620
  C           2.99737307421576     -0.41044464525026      1.99773871201693
  C           1.66168980928723      0.34895630858466      1.77670539592886
  N           2.98658215103479     -1.45356691848760      0.94022861843901
  H           3.86049193522773      0.23185575492293      1.81049148977505
  O           1.67638097319245      1.44541371729216      1.02888892052449
  C           3.04223972423293     -1.01266945018063      3.40917888917797
  C           2.63093522182423      0.02806640758896      4.41433946694265
  C           1.63950618974826     -0.12013726668705      5.27006145268216
  O           0.63780676670631     -0.05100913903672      2.24455801532840
  C           4.45375234426154     -1.50720239418380      3.76369052743170
  H           2.33553999284013     -1.84653337772915      3.44219633219828
  H           3.23498494366052      0.92737700815526      4.41959640773827
  H           1.39040055565545      0.64141236862681      5.98847145942139
  H           1.02727711399646     -1.00529869524454      5.27531790188875
  O           3.55133371063028     -1.15915400616426     -0.09174069693318
  O           2.38904471518374     -2.47293490661177      1.14602434056076
  C           2.83055223001221      1.95145657120147      0.37284187765798
  H           2.46601090857282      2.77185022519845     -0.24276113071508
  H           3.29646776161336      1.19994869872499     -0.26752366296441
  H           3.55338661812890      2.34311669064525      1.09314980613891
  C           4.97431285888430     -2.62737864612297      2.87056985993910
  H           4.41781363967663     -1.86430919706241      4.79469747904187
  H           5.14940085984440     -0.66377483566145      3.73542455940616
  H           4.24401391084530     -3.42918695537979      2.79230646576428
  H           5.88872165332303     -3.03748866261556      3.29261492472801
  H           5.20858033740122     -2.27156465452297      1.86943258788169
