26
Coordinates from ORCA-job NEB_reactant E -42.813660870280
  C           1.61032327087272      0.16230664844843      0.02247388534027
  C           1.80805496527236      0.35570814452871      1.35709521255536
  N           1.06905605060704     -1.00498967382723     -0.52931090655745
  H           1.86676085518347      0.90572875814052     -0.71058444500241
  O           2.32773678912768      1.47759742671926      1.87994156025886
  C           3.67575847386969     -1.56358434220863      4.62624139926797
  C           3.19252747440786     -0.53223003767494      3.95378576359961
  C           1.73962036982622     -0.36257075005309      3.62571510865606
  O           1.47849504774469     -0.56753399841321      2.23220569141354
  C           5.11911921933968     -1.77115965392332      4.94711712169866
  H           3.00612191471981     -2.33777069872483      4.97806639539914
  H           3.84939421122988      0.24320179924235      3.58414665157289
  H           1.38897057864038      0.63290745742512      3.92077271587976
  H           1.13940255498735     -1.13075998408982      4.11610829878310
  O           0.97229356363632     -1.02427788673005     -1.74790757498295
  O           0.72816919503496     -1.92196326883004      0.19330021504784
  C           2.67709656610985      2.55378475205741      1.03275329931522
  H           1.80779739298100      2.92289729295027      0.48433681602605
  H           3.46154545212830      2.26338790541000      0.33037100676382
  H           3.04961110333830      3.33273717435773      1.69560096797018
  C           5.61926417065355     -3.09405212448734      4.36671962359137
  H           5.24205280270765     -1.79095924449554      6.03377102176739
  H           5.71275252543804     -0.94446612057475      4.55306516929195
  H           5.05112390221418     -3.92775090826661      4.77239016520949
  H           6.66903863607700     -3.24096587548655      4.60830815153197
  H           5.50791291385204     -3.09762279149387      3.28511668560230
