21
Coordinates from ORCA-job NEB_product E -44.134792740370
  C           1.52293674037153     -1.15315295399983      1.98442719408534
  C           2.79741959786414     -2.04115007032604      2.05507147823024
  C           1.37444962048828     -0.55723187804950      0.59493816964182
  H           1.75981477532887     -0.30293410857470      2.64221821444790
  O           2.77350526558164     -3.20948554935299      1.43688869340772
  C           0.24292549842282     -1.80136087020591      2.57156001672282
  C          -0.36860329459189     -2.91661693636362      1.76732709516869
  C          -1.51808787382542     -2.80545429720345      1.12685524172068
  O           3.76680603779657     -1.63706132582413      2.62283112064965
  C           0.54083617839067     -2.30184867372527      3.99154142329860
  H          -0.50252253708060     -1.00344706711371      2.67160236234035
  H           0.14117794877139     -3.87136900196551      1.80682631340099
  H          -2.07080144391390     -1.88060974012239      1.09942722388316
  H          -1.94201403703857     -3.63323148716211      0.58665291252524
  Br         -0.16607046321122      0.65919610032671      0.51478610532548
  Br          2.97190261650422      0.50698836529510      0.16048950070101
  Br          1.14419702157971     -1.85377850892006     -0.84812482745950
  H           1.91250785734884     -3.47453133621580      1.07834915840380
  F           1.37938871399706     -3.38425715229982      3.95408768286832
  H          -0.38138821384765     -2.63327704117351      4.47835668691963
  H           1.03471999106353     -1.53578646702344      4.59738823371806
