20
Coordinates from ORCA-job NEB E -49.889429400300
  C           0.74017673027673     -0.11751908224082     -1.00086585829973
  C          -0.52656929575340     -0.66443035105563     -1.19148247789109
  H           1.54334837717888     -0.80857447913202     -0.79166164317505
  H           1.02802922907453      0.72852074074275     -1.60899374509713
  C          -1.59267671254640      0.10550247512328     -1.93859154640815
  C           0.54802308572502      0.52824533201994      0.81797600060437
  C           0.11461632601401     -0.60104908285821      1.50325889267575
  C          -1.12627359855008     -1.19701260903141      1.08664090163138
  O          -0.93053689337695     -1.62997184033720     -0.40385493293723
  C           1.90729525710482      1.08117883895062      1.16709947273219
  H          -0.15961643156435      1.32034028553438      0.59735635061339
  H           0.85247296269726     -1.23336459648640      1.97635650149643
  H          -1.97581854298158     -0.51789512151147      1.04033282183609
  H          -1.37886566665169     -2.13111128113138      1.57642938836633
  Cl         -2.20386904830482      1.49540095439152     -0.95301386177781
  Cl         -0.95462331897795      0.77020087686739     -3.45135116679923
  Cl         -2.97068319884375     -0.94594837209716     -2.29517358152398
  F           2.85948840573405      0.13840191725734      1.20167911078476
  F           2.31749808132023      2.01033766815603      0.29338588809481
  F           1.90858425242544      1.66874772683846      2.37447348507390
