20
Coordinates from ORCA-job NEB_reactant E -49.915803126210
  C           1.58540077499330      0.12764605279384      0.06121035979476
  C           1.58826002166071      1.39274366200061      0.45812583207175
  H           2.06317416384377     -0.65130503773270      0.62427536241510
  H           1.09863068389952     -0.16311478560714     -0.84834603127884
  C           0.93160393801299      2.52198460163109     -0.29727549227067
  C           3.24080158647843      3.10244239627499      3.77141259104895
  C           3.38346324271882      1.79794741445807      3.60769955406883
  C           2.83512387519683      1.03512290144715      2.44746891964163
  O           2.15698468000788      1.91092026816279      1.57604543988785
  C           3.80237391986751      3.83745514803877      4.94554834151559
  H           2.70898055556896      3.72234928918626      3.06732002066684
  H           3.92176312652649      1.19859847036614      4.32901686964218
  H           2.15041588695732      0.25808866446232      2.81926665173589
  H           3.66299401834125      0.53610175909520      1.92167736601529
  Cl          2.16948107496640      3.74116483387851     -0.70356922632380
  Cl          0.14368929006916      2.00862471716867     -1.78374919848995
  Cl         -0.28807492980845      3.28826931182408      0.75553591854181
  F           4.45946506056814      3.04573841451761      5.80631751558322
  F           4.66911279524302      4.79430358279307      4.57140567743002
  F           2.84365623488794      4.45741833524069      5.65511352830356
