24
Coordinates from ORCA-job NEB E -53.719443412540
  C           0.24417410924733     -1.49544144562192      0.66759678331842
  C           1.26533058634928     -1.52245746233477     -0.27650638452279
  O           0.38280399415866     -2.11749238048863      1.82250277871393
  H          -0.74691507847023     -1.02986783120392      0.49488004655723
  C           2.43006566717801     -2.25384441350344     -0.12103617529228
  C          -0.59190077080477      2.32292804596733     -1.62248665913928
  C          -0.12140588757917      1.18964172077263     -1.13077160382751
  C           0.08356520066723     -0.11061986391866     -1.84279025370316
  O           1.22848609840110     -0.82944793182894     -1.44551604085187
  C          -0.74604899402467      3.56472391683277     -0.82741903629790
  H          -0.82899692770210      2.45135796588525     -2.67175114371671
  H           0.15253211349286      1.17529398713251     -0.07987425312964
  H           0.22875296043236      0.03638621980998     -2.91346574465211
  H          -0.82338835000210     -0.71900715790158     -1.69004277817514
  C          -0.62200080430793     -1.94191750861443      2.80727037076293
  H          -0.50426062184796     -0.94572898635701      3.23336868149482
  H          -0.41105183529136     -2.68184250582327      3.57720505620696
  H          -1.63221820184712     -2.02603539493054      2.39912421913363
  Br          2.66754697751670     -3.58056503178870      1.17216971137495
  Br         -2.77110565180854      0.28182658478785      1.38931939972504
  Br          3.68459086989939     -2.26388827010402     -1.49028085885117
  Br         -2.67619189080393      3.95687234303443     -0.73010575144161
  Br         -0.08907832727025      3.49560481392075      0.99629308169206
  Br          0.19671476441725      5.04352058627635     -1.71768344537879
