24
Coordinates from ORCA-job NEB_reactant E -53.759900713990
  C           0.86493804074718      0.66269676950072     -0.14104617009483
  C           0.92477685649461      0.32949237867164     -1.43705915021861
  O          -0.21875808897284      1.21814129951903      0.44598498759508
  H           1.72646073045282      0.49930539686881      0.49465467503254
  C           2.17039423620263     -0.22670726550352     -2.03500930713043
  C           0.35116801565921      3.69308340801769     -1.46985842431176
  C           0.13556135955660      2.87131160414160     -2.48424035143904
  C          -0.79497317424888      1.70155778217267     -2.37929975658063
  O          -0.04244775862719      0.49457575246810     -2.39525643793730
  C           1.37442230854436      4.75704240995187     -1.40263330368350
  H          -0.22374520618872      3.59686011815751     -0.55590769255015
  H           0.70217531029322      2.93872101040811     -3.40351198866850
  H          -1.43563722307794      1.62693107257542     -3.26095942656825
  H          -1.40565439311826      1.76069383310250     -1.47352415924962
  C          -0.06630276561170      1.52563721865462      1.81917827168070
  H          -1.00767478053777      1.97049135538091      2.13503381744932
  H           0.75060285000900      2.23659899453878      1.97489665242346
  H           0.12406987430775      0.62192777722108      2.40349464759897
  Br          3.21140059497304     -1.32118390205575     -0.82745622751694
  Br          1.75315288089118     -1.27641032984997     -3.60439259733592
  Br          3.33804499295354      1.27939120775303     -2.62023464515728
  Br          0.55462589957948      6.44647647205094     -0.81739184694189
  Br          2.68456091066896      4.21870686967866     -0.01837841453745
  Br          2.34213852904973      5.08375876657552     -3.05038315185799
