22
Coordinates from ORCA-job P E -34.971228272150
  C          -1.38036432277327      0.35357473939689     -2.35228002285465
  C          -0.12370054349680     -1.68423923588496     -1.04454947948497
  C          -1.53277392374756     -1.89794036290555     -1.48688332916099
  C          -2.15273817940777     -0.91172814426598     -2.11420215957792
  C          -0.71459036218558      0.80578486555900     -1.03972720748445
  C           0.00113882414932     -0.34304398311234     -0.29800068793630
  H          -2.02068026058939     -2.83594073562148     -1.27832966907353
  H          -3.17438266010239     -0.98419840922284     -2.45193245124937
  C          -2.25501739613274      1.43615539347746     -2.95022437571034
  H           0.21399084118781     -2.49388065320916     -0.39859054786123
  H          -0.58260479439991      0.14889601053053     -3.08313691255585
  H           0.53170530321684     -1.66133313168700     -1.92169514794310
  H          -1.48307609586392      1.22763772395445     -0.38840062917174
  H          -0.48085886667853     -0.47165375198284      0.67608963529791
  H           0.00476193412955      1.59708370111882     -1.25929581175946
  C           1.47162826511698     -0.00727303068171     -0.06444437715996
  Br         -3.77301146939162      1.86970562811330     -1.80102920385256
  Br         -1.25180543968537      3.08594101544761     -3.26884821276332
  Br         -2.96648738549512      0.85724239626188     -4.68570162423419
  H           1.98755854528990      0.13642185213344     -1.01181145650553
  H           1.96336352868328     -0.81407352034388      0.47407313319774
  H           1.56763445817631      0.90271163292436      0.52308053784382
