22
Coordinates from ORCA-job R E -34.877774110540
  C          -1.41099655565454     -0.19423037626629     -2.86575073739253
  C          -0.26119098358893     -2.81127364439593     -1.92894350657956
  C          -1.48909175553589     -2.36306606859997     -1.69120918747252
  C          -1.96683799063993     -1.02556223109426     -1.98456008352329
  C          -0.85662328350562      1.63744484936701      0.51248596617245
  C          -0.13811781197547      0.56594391691156      0.23686515704999
  H          -2.21412344157464     -3.00729893523516     -1.21233087356389
  H          -2.84902345478598     -0.71809357768671     -1.43730379957920
  C          -1.86861090215398      1.16669041727326     -3.18905090154637
  H           0.02892740770457     -3.81819587639248     -1.68516718960224
  H          -0.55101454496575     -0.50119920545962     -3.44812218193383
  H           0.50350482708273     -2.19486669563582     -2.37092545214807
  H          -1.87075970049273      1.56988940413071      0.86879699459867
  H          -0.56116928755084     -0.42406734678029      0.36224080166168
  H          -0.45977100767110      2.63233699650505      0.39287860495765
  C           1.27076763348733      0.58759013185745     -0.25306793324886
  Br         -3.32850553374463      1.82800310172168     -2.10349284873988
  Br         -0.36943000061083      2.43537354108472     -3.00207023680311
  Br         -2.45313746665865      1.22940968340221     -5.08102669842028
  H           1.32974110516674      0.15232938455223     -1.25076519160163
  H           1.90789424755060     -0.00073333991727      0.40577487843008
  H           1.65257850011754      1.60477587065789     -0.29560558071527
