24
Coordinates from ORCA-job NEB E -55.690230903050
  C           0.10164077325140     -0.51700549421219      0.46393955090574
  C          -1.03397532034227     -0.95836203596618     -0.27830012819832
  O          -0.09105319060557      0.23127554916530      1.60310993243118
  H           0.88060112096732     -1.28188940807289      0.58114749249949
  C          -0.80581989882215     -2.10843900975317     -1.24548913441634
  C           0.77027714675144      0.78230183272245     -0.63613814730507
  C          -0.34339013814960      1.62493165905321     -0.84291190661296
  C          -1.47549465001759      1.08487388835884     -1.51572626097894
  O          -1.97081345556480     -0.10509494933769     -0.56077243774384
  C           1.98442151191270      1.39543307639997      0.01110949338343
  H           1.07671227391065      0.17079625851923     -1.48595247020744
  H          -0.49957987958371      2.45341307578679     -0.16690173865054
  H          -1.28174063604200      0.56355984809156     -2.45100077727821
  H          -2.34669782743269      1.72611443157697     -1.57130593836810
  C          -0.13975065327969     -0.53854867274462      2.78827108198769
  H           0.76213104723597     -1.15093013654725      2.89596284544568
  H          -1.01998829089036     -1.18705295664299      2.79257453075093
  H          -0.19919936916068      0.17907163995318      3.60318361427788
  F           0.02022581623685     -1.77349945526786     -2.27408421980289
  F          -0.22078832862624     -3.15337700263398     -0.64262374718075
  F          -1.93513668421737     -2.53728334046404     -1.80022899855500
  Br          2.86504257441467      2.50438140548975     -1.35965896235500
  Br          1.61600983303979      2.53601781720398      1.52181846383118
  Br          3.28636622501394      0.05931197932163      0.56997786214022
