24
Coordinates from ORCA-job NEB_reactant E -55.727773672640
  C           1.44313993552417      0.48316602138833     -0.07155543568673
  C           1.28941724791123      0.30186719863870     -1.38681575771812
  O           1.51605842175691      1.68618270871295      0.55005537158110
  H           1.51845755045600     -0.39170913589170      0.56130657581273
  C           1.19735902560578     -1.09397791602300     -1.95002544189868
  C           3.41728856104866      3.59500271127929     -0.97503650323950
  C           2.95867717070129      2.71379253764288     -1.84868152972356
  C           1.50444277377642      2.54840258555879     -2.16236467231013
  O           1.16880688306102      1.20012247767882     -2.41455163603565
  C           4.83235673949842      3.81166133502928     -0.61293376523670
  H           2.73503047239399      4.24340270761180     -0.43854437915829
  H           3.61607456929246      2.04610434051047     -2.39043161474919
  H           1.27628609124325      3.05684217430151     -3.10595965719994
  H           0.88160237460712      2.96812355377282     -1.36639598454134
  C           1.81180411641991      1.62771124072107      1.93280435027862
  H           2.80005123508972      1.19460118696228      2.10870541036611
  H           1.05842974757438      1.04676282238674      2.47116175143205
  H           1.80181903502074      2.65543954579224      2.28915206455076
  F           0.03555599243915     -1.31471118033170     -2.57783951497735
  F           2.16612813573682     -1.33317919085534     -2.84550770468321
  F           1.30750165507044     -2.04354853447443     -1.00963492237579
  Br          5.05051589920982      3.50244091922856      1.32243143723295
  Br          6.10199349975256      2.67172362182039     -1.53509430836149
  Br          5.32640286680972      5.69127626853928     -0.96934413335864
