24
Coordinates from ORCA-job NEB E -38.973556651880
  C          -0.21094794924246      0.04728764171121      1.16630381824114
  C          -1.59182741846103     -0.39658437704263      1.04482950213287
  N           0.03922748966817      1.43622688397096      1.24022313333157
  H           0.36334356029254     -0.51756415277470      1.89961262122996
  N          -1.84625319427672     -1.77437477508339      1.39012887586978
  C           0.39778363578487     -0.51040713474760     -0.37588920383497
  C          -0.43967725315672      0.14254401236399     -1.33310699454144
  C          -1.78644092461220     -0.23683486551829     -1.42899093174268
  O          -2.33709809380149      0.13451656427858      0.16101849273848
  C           1.90037005216721     -0.25122044492891     -0.40658652520592
  H           0.22041898728259     -1.58473165146890     -0.30272117226075
  H          -0.15837719929356      1.13005714444792     -1.66428133555176
  H          -2.04177938752200     -1.29114144343399     -1.41625272862277
  H          -2.44232407947072      0.35721435336935     -2.04994295617069
  H           0.31526060944853      1.74333110877509      2.16077241358777
  H          -0.74285840397694      1.97668359209391      0.89045497356618
  O          -2.82163550065841     -2.30862809278357      0.89750161730676
  O          -1.07897790761041     -2.30964451590054      2.17875672940578
  C           2.31937011163112      1.15752484911982     -0.80477305705048
  H           2.32632686261033     -0.96466895494805     -1.11744137870550
  H           2.31731847134245     -0.48920069815233      0.57297528551744
  H           2.09727236936431      1.35044288710139     -1.85107345426736
  H           3.39170707331029      1.26783093042386     -0.66398891908386
  H           1.80979808918025      1.89134113912683     -0.18752880588955
