24
Coordinates from ORCA-job NEB_product E -38.991863455570
  C           3.05761841217344     -0.51573706852755     -0.90470685363653
  C           1.62524618940976     -0.93281884636546     -0.66511498053136
  N           3.23913100019011      0.90387641109089     -0.74858180056650
  H           3.67470672923713     -1.03753099560813     -0.15989854256087
  N           1.47421799782012     -2.44278889275868     -0.51781379847673
  C           3.47225452378317     -1.03041146984056     -2.31736273642471
  C           2.75866156335634     -0.24455935264180     -3.38076324589784
  C           1.64109351675826     -0.64794393829257     -3.95572959623759
  O           0.66181199524480     -0.24218657108568     -0.58350511648595
  C           4.99808841251264     -1.04679102736161     -2.49721763811017
  H           3.14002043508585     -2.07359206506904     -2.38498726900282
  H           3.20731192158533      0.69864087540246     -3.65440415433412
  H           1.16934284270786     -1.58400595154195     -3.70161296414776
  H           1.14613535936505     -0.06006099552066     -4.70932525414059
  H           2.95273101980574      1.20624878421062      0.17568584045685
  H           2.68998962094079      1.41259795705187     -1.43273483209118
  O           0.63389082233939     -2.96688018979062     -1.20417258242839
  O           2.24293858810139     -2.98892617024058      0.23974576507879
  C           5.68351341382925      0.31302064110129     -2.45181829167162
  H           5.20609429782118     -1.52287149903455     -3.45857934852058
  H           5.42045517367722     -1.68453127334297     -1.71743397001086
  H           5.39986541386706      0.92585004809886     -3.30271959181595
  H           6.76138493303242      0.17392710220648     -2.48631668135188
  H           5.42489581735569      0.84237448785994     -1.54043235709161
