24
Coordinates from ORCA-job NEB_reactant E -39.006080902630
  C           1.15440474284037      0.35472228304404      0.14079240959621
  C           1.75021978471217     -0.61080877832080     -0.60081187680980
  N           0.11256685322585      1.09317663048234     -0.28999949987498
  H           1.55414911484537      0.56862383137958      1.12155549405299
  N           2.85451250474664     -1.32954910876920     -0.06157364962765
  C           3.98724400051197     -1.39426007920783     -3.84896957614803
  C           3.39502016023310     -0.55057918152005     -3.02002292470645
  C           1.91186055784486     -0.36022797046740     -2.96016323332791
  O           1.29684799008158     -1.00262940669385     -1.82711604774894
  C           5.45204327697634     -1.67597735956333     -3.93893330702326
  H           3.37884406798201     -1.96013874557591     -4.54427085829442
  H           3.96567126419311      0.02926223611975     -2.30895950910099
  H           1.42288452700456     -0.82589144552834     -3.81743128294414
  H           1.66737727291003      0.71244534477523     -2.93272537472909
  H          -0.41989422222988      1.63421130014357      0.36737408113296
  H          -0.34914336638239      0.79147284126596     -1.13401744705506
  O           3.30729209191701     -2.25552494164312     -0.70475314102679
  O           3.28058196403270     -0.97422849058242      1.02977051700405
  C           6.30660650456978     -0.97943584164808     -2.88915917712808
  H           5.79581713426902     -1.39884775304479     -4.94158512194638
  H           5.58303554796731     -2.75816453469247     -3.84726822357937
  H           6.24257805942269      0.10178723378623     -2.98942416780162
  H           7.34795126325694     -1.27136901538280     -3.00404514710228
  H           5.97912890506887     -1.26336904835629     -1.89246293581093
