20
Coordinates from ORCA-job NEB E -44.720822605090
  C           0.51868493559345      0.78439033515607      0.32829283173720
  C          -0.76073268586448      0.32546348905267      0.69312504149441
  C           0.54717561975174      1.92616495043182     -0.66919550391870
  H           1.20920444770851      0.95917542903563      1.14833256152540
  C          -0.99049074488362     -0.23802044467918      2.07838217487587
  C           1.24354258650631     -0.66626725580872     -0.67058839415946
  C           0.20407606443579     -1.55136398843547     -0.97003120003990
  C          -1.00528916896181     -0.94835150425674     -1.44002946455814
  O          -1.58406685164974     -0.08945780566843     -0.22575636869217
  I           2.92131326249417     -1.45922466790923      0.37806347552237
  H           1.61241956343537     -0.03876231405939     -1.47003667426941
  H           0.10940184382963     -2.46449172623649     -0.39988968656148
  H          -1.82753379846135     -1.62624451054866     -1.64227317252991
  H          -0.89051744261116     -0.20747751803281     -2.22964894185467
  F           1.80753070993161      2.13531062838068     -1.16036933076479
  H           0.25642573529565      2.85050192464431     -0.15667492366158
  H          -0.11215140274552      1.75834923308809     -1.52554012620804
  Cl         -0.23532106166624     -1.86197938193810      2.24841700662797
  Cl         -0.29488774902018      0.82217371527524      3.31352407052635
  Cl         -2.72878386311813     -0.40988858749130      2.37189662490869
