20
Coordinates from ORCA-job NEB_reactant E -44.756916985090
  C           2.21900434007899     -0.41750292826368      0.02129042653343
  C           1.48819287612643     -1.52540325298871      0.14268426928733
  C           2.32021714760860      0.37405079966446     -1.24521762205534
  H           2.79622064110590     -0.07240633165755      0.86418329151451
  C           1.42765878625311     -2.24432799335251      1.48156945157773
  C           3.54123275903952     -3.82182650859992     -1.37168378046645
  C           2.22384816256582     -3.87648854323444     -1.41805867053413
  C           1.40664058898425     -2.72061939766535     -1.91283252689567
  O           0.71834603329288     -2.07041207488408     -0.83314070803642
  I           4.72902113691864     -5.38266279311141     -0.63210898862705
  H           4.11103096631641     -2.97592353117174     -1.72058167009670
  H           1.67479973193553     -4.72825886722381     -1.04499057183829
  H           0.60140714144593     -3.06504842848525     -2.56512999302203
  H           2.04328530600733     -2.01362500011776     -2.45232448969444
  F           3.39575003979476     -0.05624426644194     -1.99991473818377
  H           2.49710643862804      1.43170757609068     -1.03261114438360
  H           1.42890243012151      0.25095893203188     -1.86836998142027
  Cl          3.04953036522943     -2.87043161799893      1.89204269578141
  Cl          0.93159956782727     -1.11494378785042      2.76471009707485
  Cl          0.29190554071966     -3.59279198473953      1.44818465348492
