20
Coordinates from ORCA-job NEB_product E -44.768557555500
  C           2.51006781914389     -1.77956761514755     -0.12601550611276
  C           1.27933841590856     -2.18492027052478      0.65477551986717
  C           2.18627894634906     -0.50493902341713     -0.92366560543392
  H           3.33793576544733     -1.56373114567610      0.55429942106829
  C           1.37367124284285     -2.03606909136851      2.18596218119812
  C           2.93734490889392     -2.88621318526453     -1.10297102367365
  C           1.97060848289555     -3.16141418560407     -2.19688023533057
  C           2.31650207644901     -3.16225617428635     -3.47239258992178
  O           0.24580659933377     -2.51917916355279      0.15567289036807
  I           3.25795217113598     -4.73907982161057      0.01967084505596
  H           3.91692622534316     -2.63291455464755     -1.51093732300402
  H           0.95747432451432     -3.38143644550103     -1.89088234364785
  H           1.60174140317064     -3.36981609407671     -4.24916645529911
  H           3.32493530395227     -2.95151242586475     -3.79001219109582
  F           3.29551111833188     -0.11210119180829     -1.62064314276563
  H           1.91693512954928      0.31913234994318     -0.25657261435117
  H           1.39062002326121     -0.68708958362971     -1.65223351763765
  Cl          2.91609731215884     -2.51845890496925      2.89297536019835
  Cl          1.15433493507440     -0.27018948028336      2.41336867800253
  Cl          0.05541779624406     -2.90204399271015      2.97654765251545
