21
Coordinates from ORCA-job NEB_reactant E -29.182473670720
  C           1.84924252303733      0.11759741454501     -0.09718715164245
  C           1.49325146756002      1.36752334825671     -0.36631887995949
  H           2.18808271991616     -0.21576957879886      0.86627491732892
  H           1.79814620695254     -0.63193203087069     -0.86423880179304
  C           1.02213258419946      1.81245687384043     -1.72036544901332
  C           4.10279436978827      3.14280375238976      2.56745400550732
  C           3.41131227553156      2.19603981160449      1.94598192359483
  C           1.91685979381155      2.23915010395386      1.83251425274931
  O           1.47832995141353      2.42237050760801      0.49737767795800
  O           5.44100020118120      3.23801062261495      2.73413477805584
  H           3.61396674185025      3.97755838700603      3.05258894340513
  H           3.89522166324938      1.37102681916180      1.44787959096005
  H           1.52404242718135      3.10281119423168      2.37547062906182
  H           1.46844467438814      1.32649752592383      2.24880320190647
  H           1.68270275954670      2.58919814742182     -2.10122698520069
  H           0.02352428543948      2.23741552995467     -1.63958539080838
  H           1.00569183516562      0.97939203192929     -2.41508651607453
  C           6.24253532941163      2.23543896929230      2.15426794278165
  H           7.27213968683624      2.50004662434249      2.38823123711931
  H           6.11053050335002      2.20129748173108      1.06844049508138
  H           6.01264800018956      1.25176646386135      2.57568957898185
