21
Coordinates from ORCA-job NEB_product E -29.186399638240
  C           3.25523542125079      1.33400428381371     -0.01089530316066
  C           1.78252075852022      1.13902129732475     -0.29027186994809
  H           3.69251541801708      0.37508425915472      0.27140755237345
  H           3.77169174187089      1.73463934451101     -0.88324649688114
  C           1.19696317922306      2.10674041805428     -1.28429516464076
  C           3.43047325812316      2.33384971489893      1.16239393844332
  C           2.80894796482776      1.77155847349852      2.41121697115139
  C           1.94431362480744      2.43205541613071      3.15647852336810
  O           1.13290993506982      0.28231542615616      0.25359045850319
  O           4.78585144487112      2.72176303322207      1.31262642602998
  H           2.93493998070615      3.27719445756302      0.90260105453644
  H           3.09968183082598      0.76275798904031      2.66889994546011
  H           1.63242321720373      3.43442418077702      2.91208725482424
  H           1.50805535519238      1.99785399494627      4.03960365266698
  H           1.51421186148904      3.12108791302861     -1.05632067819492
  H           0.11232172054727      2.04339219525714     -1.28127840629336
  H           1.56367942047642      1.85374563582292     -2.27785686095838
  C           5.65748193866320      1.77877212257171      1.89069541391294
  H           6.64839129386434      2.22662098622504      1.83684310658863
  H           5.66541803197598      0.83172813902436      1.34180298782942
  H           5.40747260247416      1.58709071897871      2.93921749438912
