17
Coordinates from ORCA-job NEB_reactant E -30.510285134310
  C           2.09543756657748      0.07479532606767     -0.30090058628829
  C           1.63891548867967      0.78290045578349     -1.33879973590225
  F           2.54026815638508      0.61269141457311      0.87062090966907
  H           2.19020651594288     -0.99645795656703     -0.31798512127280
  N           1.27516695045940      0.13746738286617     -2.51764881671476
  C           4.27149872903247      3.91684886277486     -1.43921781656819
  C           3.60934427009280      3.00688783013145     -0.73853280216389
  C           2.12193092454563      3.02386260353900     -0.57899569924641
  O           1.46155139921838      2.12191993054083     -1.46779922982396
  O           5.60733152367962      3.94970535224001     -1.63141018095355
  H           3.78412433425956      4.75213629233104     -1.92150217668869
  H           4.13517883507630      2.18278619841832     -0.27671666923322
  H           1.71838684403462      3.99920230522585     -0.85999989753228
  H           1.84267570239566      2.80269494475831      0.45602751510139
  H           0.69536093906323      0.72188336740508     -3.10192268373595
  H           0.91759981367355     -0.79771361686874     -2.40487445689946
  H           6.01962200688367      3.19198930678060     -1.19614255174677
