20
Coordinates from ORCA-job NEB E -48.542501930680
  C           0.35250765434677     -0.81569401347781     -0.40483321939016
  C          -1.13429857096243     -0.75134419983199     -0.62040153372100
  O           0.63355110638133     -1.70443410598811      0.64510243024919
  H           0.79032101634347     -1.22238219281197     -1.33674306909045
  N          -1.77528131992677     -1.93603076104077     -0.92697675676711
  C           0.99822281033667      0.56967177130272     -0.14727870378608
  C           0.02059969383741      1.66825928022608     -0.04134905682036
  C          -1.42379878846601      1.51194325425664     -0.09194193963678
  O          -1.94517848275170      0.29647352616999     -0.49983961899596
  C           1.93288385317442      0.57176049041789      1.09069891343768
  H           1.67514880749944      0.78144767077817     -0.99058716331588
  H           0.39401858008777      2.65653747353561      0.15834048558725
  H          -1.88274518172226      2.27324235819089     -0.74009941495146
  H          -1.83669536606860      1.70532513850573      0.91360691789195
  H           0.28382335691242     -2.57432136262343      0.37356452592534
  O          -2.98608362343840     -1.92964989884935     -1.11244706122337
  O          -1.06044812452419     -2.95226636704860     -0.98776307635185
  Cl          2.75127252709084      2.15636612568621      1.18005667149368
  Cl          1.01093393687063      0.34918827689473      2.58060485027902
  Cl          3.20124611497918     -0.65409246429264      0.95828581918634
