17
Coordinates from ORCA-job NEB E -33.497178576360
  C           1.02280497335583      0.40706545627415     -0.31960200918876
  C           0.10573929613419      1.44429721125493     -0.15927571251947
  C           0.92552720319096     -0.40718478529762     -1.59188343543511
  H           2.05074933203826      0.59487564992007     -0.02655421897673
  I           0.63017179540356      2.98782911714727      1.25815557963344
  C           0.31813480397418     -0.79981659715548      1.04630832338303
  C          -1.01810749352743     -0.93274722458111      0.67456804543052
  C          -1.82213984187408      0.24311252903921      0.68049830037983
  O          -1.13624971675043      1.27439334753829     -0.37685282421398
  Cl          1.33529011124989     -2.20925763972949      1.00292321278755
  H           0.57237088438134     -0.17702430297013      1.89871116162451
  H          -1.29627183898686     -1.75068500641402      0.02763484920904
  H          -1.78669589681819      0.84949028092331      1.58350074828266
  H          -2.82677801259688      0.13971961143112      0.28951031845057
  F           1.71189433495323      0.18236098277477     -2.54984865672499
  H          -0.09651835679202     -0.42417131223358     -1.98215257845883
  H           1.31007842266443     -1.42225731792168     -1.45564110366328
