20
Coordinates from ORCA-job NEB_product E -40.150930470750
  C           1.88060633512293      0.39802052736613     -1.54205609416169
  C           1.07015083499548     -0.64475247126466     -2.35114293106122
  O           1.11491689254260      0.91539653376925     -0.51238785397428
  H           2.80067305380520      0.00183807793801     -1.10483236292566
  C           1.73924967855806     -1.97769382847357     -2.67848513519087
  C           2.14827264409337      1.37434300159256     -2.72306531454609
  C           3.55866402992111      1.84879269221154     -2.82556985462215
  C           3.92962224798482      3.09519995292648     -2.59886899633486
  O          -0.14167175457516     -0.59871627036421     -2.36800141241103
  N           1.73002159172372      0.50110881704503     -3.84642512437074
  H           1.46646254145724      2.22408730865031     -2.63060528936849
  H           4.28657729301859      1.08695240340769     -3.07213089632700
  H           3.21866000331613      3.86191939271132     -2.33947450622685
  H           4.96115620982112      3.39506815422325     -2.65377760568599
  H           0.18227261747989      0.86899368005153     -0.78118116998661
  Br          1.53048567293350     -3.07082136475375     -1.06972612362996
  Br          0.80905700516015     -2.81060395670977     -4.16079555383221
  Br          3.62570857848205     -1.89903816472807     -3.09041760763107
  H           2.50311952979490      0.23600235820151     -4.45068261866518
  H           0.97419499436429      0.87880315619940     -4.40717354904806
