24
Coordinates from ORCA-job NEB E -40.766770160220
  C           0.46693083514030     -0.14379411095938     -1.17248758842263
  C          -0.60306055373116      0.65069007542716     -0.78237375062183
  C           0.23799584710512     -1.38095568173953     -1.99981061228060
  H           1.36069336905725      0.40984844010091     -1.43333999576677
  O          -0.33828917759869      1.96989327874703     -0.61086000114290
  C           0.83211007196407     -0.98821579345854      0.69815046475778
  C          -0.22892815598099     -0.65065407836908      1.52014486946728
  C          -1.53179578992863     -0.85771432653822      0.96720326035577
  O          -1.69391994460024      0.17106229744809     -0.26710238888724
  C           2.21507772606387     -0.53256918979600      1.07349195111275
  H           0.83354011064971     -1.96816232002563      0.24217670045995
  H          -0.10349684527806      0.19532466196004      2.18512621146522
  H          -2.37812407131844     -0.57887694765040      1.58497316574381
  H          -1.68152704133300     -1.81846880126038      0.48082415363883
  H          -0.65115168611081     -1.91785681639729     -1.67913529985577
  H           1.10086027942705     -2.04185770941093     -1.95953231324914
  H           0.09668572857451     -1.08739359870639     -3.04059512586075
  C          -1.30026834238677      2.74249653216144      0.08055105301024
  H          -0.90034473454549      3.75307740985008      0.11021415416394
  H          -1.44975669832782      2.37134052343852      1.09688964677326
  H          -2.25818499085272      2.73031423925581     -0.44637904241126
  F           3.11732367786635     -0.85488339859145      0.11158625085302
  F           2.28555566568614      0.81219251047116      1.22405786838680
  H           2.57207472045846     -0.98483719595699      2.01622636831023
