24
Coordinates from ORCA-job NEB_product E -40.836975045920
  C           3.15054248566264      0.00723463439928      1.70944026974866
  C           2.22297873645112      1.15231587107875      2.09409994230450
  C           2.42740113079380     -0.91065891374425      0.72497656524441
  H           4.03487243026441      0.44583473016390      1.23754428031291
  O           2.77682741639776      2.32593649491939      1.79292605076808
  C           3.60627626837311     -0.78843776051439      2.95247655794282
  C           2.46590983685118     -1.43342197557023      3.68792150915695
  C           2.43869120728726     -2.71352756003534      4.00558327250228
  O           1.12748769998710      1.02903752031101      2.57454743142169
  C           4.38716735903843      0.10766245832900      3.91759111635250
  H           4.31201753267092     -1.55917080475002      2.62039829505489
  H           1.65232253146129     -0.77297390252784      3.94900696804398
  H           1.60995263353969     -3.14587193592562      4.53838595739313
  H           3.24076930649323     -3.38551373083271      3.74371160803797
  H           1.50561812998674     -1.27760112454239      1.16963258686281
  H           3.05667293538622     -1.75927370604331      0.46770662340272
  H           2.18400978767014     -0.36834296500752     -0.18535359503671
  C           2.02850488669803      3.48253796228396      2.14116742132138
  H           2.59178311751640      4.33379606536006      1.76839086489815
  H           1.91831743379964      3.54008580186014      3.22561554152805
  H           1.03706806384062      3.44372854885645      1.68524114609469
  F           5.49178519153350      0.61941152546681      3.31721651595822
  F           3.66277782118026      1.17177420078076      4.33500375187815
  H           4.71914605711651     -0.43706143431591      4.81586931880776
