15
Coordinates from ORCA-job NEB_reactant E -31.122125037170
  C           1.91239782003574      0.02035742332826      0.08942109953577
  C           1.55610425774214     -0.98437668524626      0.88848376559767
  O           1.85666993340071     -0.04087618364585     -1.26016591461783
  H           2.29457498417784      0.95407270672652      0.46467695201691
  Cl          1.66751347223223     -0.81208324552622      2.61693454353312
  C          -0.33663888644826     -5.20241426987669      0.87806268328356
  C          -0.29772891424571     -4.03931883051529      0.25724430954420
  C          -0.02244128927874     -2.75304927635712      0.96157129220744
  O           1.16548936022397     -2.19092349051595      0.39825825755881
  F          -0.59667060619253     -6.34066429762540      0.22453600987490
  H          -0.19330801275385     -5.36575368197170      1.93673036829544
  H          -0.44493459621071     -3.98818374660789     -0.81097715701473
  H           0.11901553512073     -2.91781128465142      2.03517588002461
  H          -0.85822211414553     -2.05395397876610      0.81451132290045
  H           1.53877905634197     -0.91702115874889     -1.51996341274032
