18
Coordinates from ORCA-job NEB_reactant E -34.921045370870
  C           1.67719449227487      0.06763018792025     -0.09726640574449
  C           1.40661979911820      0.79448009005936     -1.19001791154231
  C           1.80207524095788      0.54751548909006      1.21057487867028
  H           1.78565015625773     -1.00035215871327     -0.21680529434993
  F           1.26668955937969      0.14275824044679     -2.35311923375655
  C           3.79566104322810      3.19019929925528      0.71940148642349
  C           3.06044081514694      3.24236425192497     -0.37787964712056
  C           1.57372524488047      3.04385216233042     -0.41388007745429
  O           1.20791056052322      2.08556875941002     -1.40495866742214
  C           5.26991163802416      3.43372590474603      0.73921526099482
  H           3.35632961765933      2.96389303646805      1.68114043989765
  H           3.50996410613707      3.44536818327103     -1.34131369219408
  H           1.08060971274102      3.96222936693011     -0.74821046235824
  H           1.18421080840159      2.76003120539834      0.56687703578890
  N           1.89869248636230      0.88998564772739      2.30257210411195
  F           5.90412235410606      2.48919215649542      1.50782212923367
  H           5.49479702501920      4.40519767108640      1.19892671164354
  H           5.71159533978217      3.38316050615336     -0.26127865482170
