18
Coordinates from ORCA-job NEB_product E -34.936434621940
  C           2.85152769970921      0.98217118089505      0.34834432761295
  C           2.77875544917082      0.50277474195369     -1.07968673497303
  C           1.54224781356917      0.81926376235719      0.94861022984552
  H           3.54874533646643      0.31922730994435      0.88138624296807
  F           2.55287718527936     -0.83445306260152     -1.10534646297292
  C           3.31601235725304      2.45449145319480      0.50132484243638
  C           2.37344104080744      3.40537838351083     -0.18214633592259
  C           1.53178995139767      4.18517038274603      0.46870596217546
  O           2.89197935068449      1.09799982983175     -2.08936428214826
  C           4.73553181209463      2.61647876856721     -0.04412314338212
  H           3.33272187930824      2.66921903406785      1.57626306440258
  H           2.41099586256816      3.40329813340845     -1.26168963190179
  H           0.85935340476108      4.84589031832360     -0.04923741074577
  H           1.47465564488858      4.19276668987737      1.54496706375004
  N           0.51526102480094      0.71056016141373      1.43313426861555
  F           5.58623947550934      1.75328574230018      0.60444901949791
  H           5.10446672371744      3.62969727907215      0.13964982672541
  H           4.79249798801398      2.38437989113729     -1.11124084598336
