20
Coordinates from ORCA-job NEB_reactant E -47.624332354870
  C           1.76070888501000     -0.03808497345388     -0.47270338035779
  C           1.45325111258275     -1.34297136339142     -0.41662056237388
  C           1.63982946480812      0.80092774329401     -1.59096280183279
  H           2.13063300874132      0.46730233256077      0.40826324423446
  C           1.61521464118094     -2.17136370532610      0.82584626983100
  C           2.47771590427711     -0.79522328421504     -4.40834459153047
  C           2.23073375382984     -1.56634100671068     -3.35908111351717
  C           0.89055950041681     -1.73899204676604     -2.72246266554736
  O           0.98546846532409     -2.16255887491214     -1.37601301414236
  N           3.80155689885671     -0.72549321012399     -4.96964557128053
  H           1.75532824659032     -0.17577178455917     -4.91630368241939
  H           3.04317094990000     -2.14435209673914     -2.93058969186436
  H           0.36273341476890     -2.56468181916498     -3.21527341815186
  H           0.28049808592218     -0.83398294911968     -2.80990311416429
  N           1.55470756623781      1.53154424921179     -2.47138267179641
  Br          2.06126729622582     -1.19195146190362      2.42587908336682
  Br         -0.04906171887834     -3.15010192132551      1.15017919603909
  Br          3.04511014309411     -3.48418980628055      0.47483091358824
  O           4.69084979188149     -1.31955132399252     -4.40269007253424
  O           3.92562458923000     -0.07186269708212     -5.97812235554672
