24
Coordinates from ORCA-job NEB E -32.321049433460
  C           0.05553351788063      0.47298815191221      0.79297243740880
  C          -1.18756913784164     -0.15789103773324      0.71397911446365
  C           0.09799141766376      1.97236526210772      0.65855498178044
  H           0.77605372387551      0.08459879256152      1.50366110005506
  O          -1.41877421179093     -1.42847451821250      1.18989068822679
  C           0.72052566401182     -0.20849650107157     -0.98438213577366
  C          -0.25911965952323      0.25748821318840     -1.85520871817111
  C          -1.57961812152335     -0.23110614423192     -1.69714496362012
  O          -2.04809837000783      0.22899910361945     -0.15780419329475
  C           2.13800021822537      0.27821211016848     -1.10792525642927
  H           0.65750562714302     -1.25781221833012     -0.70928253812627
  H          -0.12400970688178      1.23000301331378     -2.30681211420357
  H          -1.69831434770185     -1.30501390747557     -1.58830239654912
  H          -2.35528014923819      0.22103594118148     -2.30073369719808
  H          -0.64411191449818      2.30764459694592     -0.05994566026270
  H           1.08290326923275      2.31135279897466      0.35072663109640
  H          -0.12820269773630      2.42922594527590      1.62269844529231
  C          -0.55564424035609     -1.97310260175270      2.15550638274496
  H          -1.03494377240834     -2.88905101693500      2.49855208959504
  H          -0.42332951475019     -1.29403928851135      3.00361053756477
  H           0.42393038654322     -2.21903583172013      1.73286812285945
  H           2.17035705418728      1.31461826960288     -1.43317659236317
  H           2.65568339214545     -0.32597506865603     -1.85327790204990
  H           2.67853157334909      0.18146593577772     -0.16902436304594
