24
Coordinates from ORCA-job NEB_reactant E -32.345454334330
  C           2.08864994952825     -0.06434549327180     -0.10354270588425
  C           1.92330406755864     -1.36472710780793     -0.34979572048859
  C           1.96711425289050      1.12173392361461     -1.01306964710016
  H           2.34121293606076      0.14813215418799      0.92348895184696
  O           2.09234692086574     -2.21347014742658      0.71296468942865
  C           4.18110373711848     -1.43308591673615     -2.56348546477551
  C           3.06864950616366     -1.09502911751235     -3.19276295293424
  C           1.67535287904646     -1.43884521206758     -2.75030398356065
  O           1.58479236479996     -2.04558999097638     -1.48179825356529
  C           5.55316444686194     -1.07228909653563     -3.02126345680746
  H           4.13475255176162     -1.99848622694144     -1.64282761380907
  H           3.10497567595796     -0.53280478561200     -4.11718341741876
  H           1.25563833253349     -2.19110347069175     -3.43089895500239
  H           1.03592461132136     -0.55002292642419     -2.80332643961713
  H           0.93223631691417      1.29860094421188     -1.31081674958543
  H           2.57194601102697      1.01216700985685     -1.91270266303324
  H           2.31100160945837      2.00739775342413     -0.48497431591861
  C           1.86279560971328     -3.58924769677088      0.49918903495731
  H           2.04634057331249     -4.06378623415329      1.46151863572338
  H           2.54411971675481     -3.99960192019249     -0.25151090154208
  H           0.83376544912797     -3.77832949301525      0.18265196128749
  H           6.05200373191019     -0.46956673689085     -2.26285967328388
  H           5.52148669408513     -0.51226050805476     -3.95274144998002
  H           6.14842205522781     -1.97263970421416     -3.17024890893703
