19
Coordinates from ORCA-job NEB_product E -44.890706347640
  C           2.24673508765046      2.30539332205804     -0.61332879918526
  C           1.01425226728581      2.47623753611702     -1.48297046894030
  Cl          1.99765861012445      0.75234442813365      0.25374355645074
  H           3.14667929967203      2.19997151859297     -1.22622016759694
  C           0.88475378970829      1.44615595673081     -2.62399538991155
  C           2.38492932925240      3.43325420346886      0.40169236640539
  C           3.57199037691729      3.24433330921365      1.30331341148333
  C           3.52484308263788      3.42864599204903      2.60882651275551
  O           0.16928825305128      3.29699824457321     -1.28311599205288
  N           2.60517207220006      4.72747215988711     -0.33359754241952
  H           1.46795276811299      3.55779730907229      0.98542763125139
  H           4.48953243266961      2.96769992592861      0.80298537865000
  H           2.61664747029485      3.71438109184798      3.11229255233940
  H           4.39655791646995      3.29801028463889      3.22513104203521
  F           0.40572534595531      2.03632189565749     -3.73283923515040
  F           2.07573093863976      0.89848136567819     -2.94505537078705
  H           0.19417204349561      0.63343833974402     -2.33849853592994
  O           3.09059875402433      4.65485091903891     -1.43287615075615
  O           2.31508016183763      5.72971219756925      0.25618520135902
