19
Coordinates from ORCA-job NEB_reactant E -44.890088182240
  C           2.56092975072336      1.09584216865906     -0.71265664150828
  C           1.40372656304062      1.73933883513742     -0.55081749878355
  Cl          3.94880288312176      1.14305267386694      0.30938646894814
  H           2.70442720976393      0.46277992926856     -1.57237405654661
  C           0.32588501903350      1.56741454204661     -1.61103058491491
  C           3.04261622109336      4.45232036429108     -0.11067574472116
  C           2.90702061573257      3.87041676192327      1.07508357240834
  C           1.77686931197264      2.98258014503271      1.47216017750654
  O           0.94944095520847      2.57889598576828      0.40292766987929
  N           4.17473740926145      5.28644345218868     -0.39290821887072
  H           2.35786776076573      4.35686947114148     -0.93968516969599
  H           3.65749704029074      4.04985046345610      1.83493009369860
  H           1.10625007823091      3.54083294840953      2.13705699353064
  H           2.15499815623731      2.11614298545344      2.02633077392593
  F          -0.83678892994685      1.17348753619927     -1.05325049083565
  F           0.08239811057228      2.75371217096205     -2.21440491085675
  H           0.59868834200586      0.83964655680305     -2.38879805065231
  O           4.98493981128266      5.47383218114012      0.48844185480371
  O           4.24099369160970      5.74684082825233     -1.51111623731525
