20
Coordinates from ORCA-job NEB E -29.296502055590
  C          -0.54584308566925      0.55377161015185     -1.38504629672949
  C          -1.85457576608881      0.05109462150736     -1.41881943505992
  F           0.44754392082890     -0.20706957120823     -1.90689686178084
  H          -0.37862734595859      1.59402361707385     -1.65685332278162
  H          -2.65786836389102      0.78429365540822     -1.29135059637507
  C          -0.17449279906123      0.41629697424949      0.47202047478592
  C          -0.37267048284665     -0.95940262564848      0.66310044252146
  C          -1.68172002752288     -1.47460096657026      0.48857520209648
  O          -2.07484942320351     -1.17782928365072     -1.08518963417857
  C           1.17612505895785      1.06560165415673      0.70956045077781
  H          -0.97993631619180      1.05787772208746      0.82626473377606
  H           0.45613494164393     -1.62842203890637      0.49189285957529
  H          -2.48739774539490     -0.94007776792023      0.98499512540578
  H          -1.79740196162691     -2.54953988159506      0.54015389571745
  C           2.38934630881442      0.17395155656060      0.47347637063660
  H           1.18494604126259      1.40472474200134      1.75063213039615
  H           1.25755954655107      1.95934220752433      0.08645900396250
  H           2.40980266893509     -0.64704499737116      1.18554182926657
  H           3.29829250717547      0.75689846064691      0.60403165016366
  H           2.38563232328625     -0.23388968849762     -0.53254802217617
