22
Coordinates from ORCA-job NEB_reactant E -56.131204964250
  C           1.35502931804998     -0.53224235795315      0.01514302707587
  C           2.02740023895647     -1.50097086643397      0.65093069787962
  C           1.91783245448429      0.40873856311510     -0.98570493285852
  H           0.30568244698434     -0.38474405502643      0.21443884570832
  C           3.51154625812235     -1.78681541585323      0.46532076342016
  C          -1.08367095566410     -3.34422930080115      3.79837194885001
  C          -0.12014199082061     -3.36536945854950      2.88767271263052
  C           0.15705002968696     -2.26963321039942      1.91553731550945
  O           1.52204540051351     -2.34817656602112      1.55587372437772
  N          -1.29897733404492     -4.46354887954740      4.67679418782495
  H          -1.77155789835092     -2.52969840957169      3.96796681433250
  H           0.52538668510048     -4.23265077067766      2.81392340372925
  H          -0.07244204437293     -1.28689874735776      2.34723794666524
  H          -0.47225529957600     -2.41658837167608      1.02366702204477
  Cl          2.47433335146756     -0.45864162551592     -2.45863035760861
  Cl          0.67491536905513      1.57029101802948     -1.48634095725206
  Cl          3.30584300098705      1.33399494261723     -0.33240552066772
  F           4.20372760363625     -1.30494824905497      1.52312854352027
  F           3.72309543427815     -3.11824122825603      0.43843781711556
  H           3.93328324315404     -1.35286534485086     -0.45069691185341
  O          -0.60308886904439     -5.44235374447470      4.53940907747008
  O          -2.17773644260269     -4.33540792174077      5.49912483208601
