22
Coordinates from ORCA-job NEB_product E -56.126973866480
  C           1.29113405783087     -1.26913508476007      1.43441718918529
  C           2.58826287897222     -1.50883689887199      2.26451265557318
  C           1.30865095846395     -1.42784464174611     -0.08447184279403
  H           1.03487147592270     -0.21936505222294      1.62606983219694
  C           3.90827021795605     -1.95625973237999      1.59446249776642
  C           0.22604473030963     -2.13392607523921      2.15038288091400
  C          -1.16107278634023     -2.15935510777770      1.58682774477909
  C          -2.14930865370580     -1.43793332789939      2.08219808151808
  O           2.56951051293882     -1.20401726502158      3.42315419546096
  N           0.75590376128607     -3.52454800959172      2.25662072120588
  H           0.19206157807897     -1.76927976181835      3.18756301015025
  H          -1.32235322606029     -2.83893212034105      0.76364495659140
  H          -2.00895144362580     -0.76682219583732      2.91350324483078
  H          -3.13803255204383     -1.48145977482123      1.66276549398922
  Cl          1.39487444108133     -3.12681384508672     -0.60937059055994
  Cl         -0.18954903880150     -0.71603174532771     -0.76621677549622
  Cl          2.66038065885496     -0.51751758237033     -0.80915152283048
  F           4.62131634556770     -0.85670498461542      1.24502918528024
  F           4.64824947263444     -2.61499835214131      2.49898238035226
  H           3.78230325991539     -2.59804418489677      0.71272045909737
  O           1.96437713392428     -3.63646344342361      2.27710995236683
  O          -0.03114378315992     -4.41891081380947      2.35204625042248
