29
Coordinates from ORCA-job R E -35.886264174340
  C          -0.90962640210773      0.08179592835779     -2.64411978886966
  C           0.66085000754154     -2.48942733538820     -2.29893660317022
  C          -0.63937713637545     -2.32198349560465     -2.08044659105172
  C          -1.39995562917068     -1.10313897355832     -2.28430496228191
  C          -1.16310050203332      1.86384698336309      0.70536169451364
  C          -0.62058451935349      0.65536500321480      0.62245967583564
  H          -1.21815651609573     -3.16308168159112     -1.71776372434920
  H          -2.46687009556886     -1.19196930559204     -2.11681823025561
  C          -1.73416732027121      1.30678012688121     -2.83127155978242
  H           1.14391354851037     -3.43412730847429     -2.11764472500142
  H           0.15155913437102      0.20712203270083     -2.80674871503466
  H           1.29219336513910     -1.69849605021244     -2.66450636157815
  H          -2.18768401510787      2.00098866215242      1.00622611070384
  H          -1.22032380111090     -0.21013235724369      0.87558373592098
  H          -0.61011920796249      2.76409734427394      0.49549406557337
  C           0.75144221148156      0.34843141179639      0.23593211657753
  H          -2.79292060959033      1.09211665990694     -2.70681127714917
  H          -1.57169248601037      1.72637298771445     -3.82404468906558
  H          -1.44452358624196      2.06312683122368     -2.10098999704681
  C           1.57951907051296      1.27128176869317     -0.40356414546269
  C           2.87305245825714      0.93612676524916     -0.75288533574526
  C           3.37106937450526     -0.32472395263202     -0.46586552398631
  C           2.56061752365207     -1.25175777673577      0.16699819870182
  C           1.26279254891799     -0.92096449266517      0.50608847666812
  H           1.20367411077304      2.25430852126639     -0.64384662647753
  H           3.49877386474689      1.66094180751295     -1.25430912130140
  H           4.38369397714306     -0.58327892248514     -0.73896421133351
  H           2.94031916527720     -2.23823206890544      0.39012709286176
  H           0.63362146617116     -1.65107911321895      0.99482102158653
