29
Coordinates from ORCA-job TS E -35.872072615210
  C          -1.80855223046251      0.56754124659398     -1.44847187771511
  C          -0.36826123285625     -1.83024858709249     -0.71736712239240
  C          -1.69587824263504     -1.81996615888841     -0.96625654481107
  C          -2.40011123343728     -0.66059113032558     -1.36370796569208
  C          -1.27330586867721      0.82845263095020      0.65197309735136
  C          -0.43530296811334     -0.16084470990734      1.08046328231414
  H          -2.28810913783883     -2.68594513157339     -0.69934753184965
  H          -3.48072220454930     -0.71835838253894     -1.38536119929317
  C          -2.60247253617218      1.78702790538451     -1.80514679751129
  H           0.10749098152244     -2.69892975534056     -0.29323868127492
  H          -0.75514030258702      0.62787212173880     -1.67823222484553
  H           0.29845882276604     -1.09621260087236     -1.12865186030097
  H          -2.30544903917698      0.81311820848365      0.95694262489696
  H          -0.85145125943467     -0.98876130794296      1.63618640747789
  H          -0.87853367560862      1.79763064249365      0.40211930193939
  C           1.01734688467292     -0.07173370742396      1.08611620502909
  H          -2.66619878363557      1.87620255025961     -2.89100815991599
  H          -2.13389204089617      2.69346400101031     -1.42839318367230
  H          -3.61417221583815      1.72584988485847     -1.41046894840606
  C           1.72150322187536      0.88390625278105      0.34973270487087
  C           3.10089210952625      0.93846376378492      0.39351645285137
  C           3.81398322720548      0.04404521527341      1.17457655506692
  C           3.13188741317073     -0.91104652349912      1.91067824830925
  C           1.75352378847531     -0.97010438216636      1.86297395438062
  H           1.18710791439757      1.58818736538873     -0.27060137251813
  H           3.62596770132375      1.68411199914808     -0.18677729206907
  H           4.89248952530151      0.09000001742719      1.20764584047453
  H           3.67969677918714     -1.61392831931177      2.52206979064293
  H           1.22720460249460     -1.71920310869331      2.43803629666240
