24
Coordinates from ORCA-job TS E -31.633212274500
  C          -1.68805001036601      0.77257319732585     -1.27239762769689
  C          -0.33927052971899     -1.68982482989388     -0.69887021481504
  C          -1.68233496524219     -1.60062057938771     -0.82019428320506
  C          -2.36480856879909     -0.42330519015077     -1.18643642643344
  C          -1.00298646022672      1.11950734976610      0.64481363402463
  C          -0.04829893449747      0.20419573719400      1.03073700734504
  H          -2.29049964602816     -2.44331079196971     -0.51821344817065
  H          -3.44180504381218     -0.41139250502045     -1.11507496887665
  Cl         -2.60374750899175      2.20650286209084     -1.64236499760176
  H           0.11837561268231     -2.59048789744479     -0.32506138357079
  H          -0.69770643942036      0.83235127104974     -1.69490664841811
  H           0.32190737745178     -0.97495597993968     -1.14998828666677
  H          -1.96864004934547      1.03308248689851      1.11231539348419
  H          -0.34441150895756     -0.64831106213846      1.62103577733587
  H          -0.71072012926263      2.12886326115964      0.40968019252729
  N           1.30547951864754      0.36361267438237      0.92809829828291
  C           2.16739904315146     -0.73619699592882      1.27578583847175
  C           1.89409305352189      1.29458727695231     -0.00026651516179
  H           1.69601320195697     -1.35218160527077      2.03793513003090
  H           3.10606192982129     -0.34613157109896      1.67361114803944
  H           2.39669632842337     -1.36665381420287      0.40772282747176
  H           1.25615030162439      2.16453587289149     -0.12331156598247
  H           2.06270832720886      0.83904046990902     -0.98460687547576
  H           2.85839510017871      1.62452036282697      0.38995799506138
