23
Coordinates from ORCA-job NEB E -43.293530688430
  C          -0.43942786183140      0.96633118492552      0.64618969151736
  C          -1.25344566182128      0.00229527377512      1.34359725539425
  N          -1.04148469744637      2.05975908391272      0.08660891888960
  H           0.52922715603651      1.18469470883281      1.08578504653758
  C          -0.90507067868416     -0.54992971979148      2.55107477568850
  C           0.46456231840045      0.17446435202502     -1.85928395656628
  C          -0.14877951400989     -0.37795155075931     -0.76108256552192
  C          -1.61041534025396     -0.76568512108197     -0.79040813138056
  O          -2.12903396308157     -0.67058549035793      0.53723568795814
  O           1.76366965558410      0.33424380031513     -2.04757613555886
  H          -0.10325755204053      0.61314650959633     -2.67273547271008
  H           0.45174507394598     -1.04127143116319     -0.13462425292615
  H          -1.74293509749348     -1.80425343281300     -1.10707839053107
  H          -2.19191093711324     -0.11839027228534     -1.45995432222156
  H          -1.98238284401374      1.93948308638106     -0.25627394027919
  H          -0.46680789465351      2.68589680246355     -0.45369353743756
  Br         -0.03330571543179      0.51131317841040      3.84157854007939
  Br         -1.96356720522716     -1.93802408724566      3.24554956905988
  Br          1.37288164757474     -2.00587489448757      1.89760768235266
  C           2.67292446371745     -0.20029592297911     -1.09882764595609
  H           2.55585821273896     -1.28204010994080     -1.00330293866730
  H           2.53429956931850      0.25202189892895     -0.11501914877618
  H           3.66665686578538      0.03065215333875     -1.47536672894458
