23
Coordinates from ORCA-job NEB_product E -43.309523376760
  C           2.67189367820036     -0.60636438403190     -0.86951191578682
  C           1.40708336890081     -1.03039549154575     -0.17884721109990
  N           2.78542793793584      0.83327108773037     -0.78917353307452
  H           3.56298215970024     -1.04117426971272     -0.40270504521635
  C           1.55775933336613     -1.86258112487445      1.08131270452784
  C           2.56211239104383     -1.11114354228972     -2.36083779455870
  C           2.40880881045635     -2.60167444513847     -2.38263875701694
  C           1.26337511822638     -3.20703353775920     -2.63951585995929
  O           0.31003416621413     -0.70064796283908     -0.53509120520267
  O           3.62682543954430     -0.57642425819367     -3.10993465438023
  H           1.66630947255352     -0.63878816277499     -2.78411052295984
  H           3.28871745639038     -3.17586577690185     -2.12831532857956
  H           1.17363152765880     -4.27911940961970     -2.60341793195777
  H           0.37062388557197     -2.65657798113033     -2.88753550659432
  H           1.90776286200283      1.27221520879782     -1.05241151471245
  H           3.49304090659987      1.14411158214625     -1.44952713017575
  Br          2.27329147467379     -0.61451777897006      2.40355812820766
  Br         -0.16433816272849     -2.51299170524305      1.65130761368099
  Br          2.77125658333667     -3.35024024988185      0.89896600351627
  C           4.87156734182207     -1.24006088008592     -3.04677476455466
  H           5.57831440320655     -0.57429207508318     -3.53924704177213
  H           4.84487693101654     -2.19224417390105     -3.58468345939290
  H           5.20094291430712     -1.41206066869750     -2.01776527293797
