23
Coordinates from ORCA-job NEB E -44.711631483470
  C           0.10241072896262     -0.82068986859756     -0.79677822264126
  C          -1.18265058819074     -0.81725775650607     -0.21275921554420
  N           0.89493107220672     -1.92166471230514     -0.56096944354833
  H           0.27816543596679     -0.34892005154696     -1.75236256255493
  O          -2.16970567477805      0.04033636331344     -0.61372367851346
  C           0.67942209894385      0.70714435633932      0.56001133994209
  C           0.55580353534882      0.03112383188744      1.77400676145589
  C          -0.73413734533599     -0.29286989654448      2.21376877485334
  O          -1.34461299007956     -1.35264430383499      0.92638125833774
  C           2.00721548608677      1.18979822622431      0.08791286309046
  H          -0.10739686429779      1.40762079998611      0.30260609857668
  H           1.39837608518967     -0.53355709145164      2.14510465722719
  H          -1.51379841230693      0.44949829316127      2.10854405857176
  H          -0.83958597856824     -0.93114761648881      3.07741057973238
  H           1.87821511881806     -1.80950243299453     -0.75619708171857
  H           0.70455450401553     -2.36232613563300      0.32996449218368
  C          -2.08927399610686      0.63198659454227     -1.89016687645557
  H          -1.92154664121633     -0.11893793164639     -2.66710399698162
  H          -1.29865791072100      1.38695394889843     -1.93892789230562
  H          -3.05306180345171      1.11213291286819     -2.05211050710632
  Cl          2.48515823814906      2.63828962263913      1.06242267947022
  Cl          3.30742872650760     -0.00141316178893      0.26598434340046
  Cl          1.96274717485772      1.71604600947858     -1.61301842947200
