23
Coordinates from ORCA-job NEB_product E -44.754371273280
  C           2.47289770959369      2.18027901923627      0.67130806614478
  C           1.11178605048506      2.70551053458785      0.18241473971631
  N           2.37184384098896      0.73595206289036      0.83687039733563
  H           3.28634687193488      2.37838515389218     -0.02899244624185
  O           0.97564339139247      3.18462757742705     -1.05721652781019
  C           2.81164434827126      2.79678715477935      2.04521531692481
  C           3.87445591792202      1.98094257635997      2.72843247124241
  C           3.73104827016328      1.46659727433551      3.93375216416955
  O           0.13314533390968      2.57303145425938      0.87139005394864
  C           3.26976321339630      4.24687836192162      1.91487239066729
  H           1.89813313548368      2.79480584889646      2.65146364941485
  H           4.77972333677685      1.83294859636965      2.15960389831488
  H           2.83042978507966      1.60376833863931      4.50917986592895
  H           4.50997754734370      0.88553937936186      4.39507238359339
  H           2.14230905928248      0.29045824549998     -0.04519203324320
  H           1.62934597609145      0.51967412360827      1.49483174885700
  C           2.07379108295696      3.44044535431413     -1.91365517111359
  H           1.63994719226660      3.90068119658590     -2.80006849287643
  H           2.58321950974374      2.51763330753058     -2.20227499281427
  H           2.78402886883835      4.13461307143418     -1.45945118024359
  Cl          3.62850920988944      4.91586723644677      3.52197342350182
  Cl          4.74110809512602      4.38376882328650      0.92557975405498
  Cl          2.00700225306345      5.25870530833685      1.16279052052782
