77
Coordinates from ORCA-job A3R E -108.382193164490
  Ru          1.44804401059196      3.91560150393311      0.10895484052253
  H           2.78746345990954      4.60878815898839      0.03534629064151
  N           2.32855384884648      2.67652576114992      1.57133187297599
  C           2.53006850046775      3.10125371486249      2.82644838576207
  C           2.65256984955683      1.38520067271766      1.23900568443411
  C           2.92903290742550      2.26256094276232      3.84396262133712
  C           3.03790053855694      0.47928082296303      2.26731094669426
  C           3.16061071647110      0.91038055426008      3.55239296463455
  H           3.07348291291740      2.64555987502534      4.84161338260981
  H           3.24378886917896     -0.54273071447288      1.99061186968343
  H           3.45610781858922      0.23312489834333      4.33998954247530
  P           1.09039078385514      5.26488252492983      1.95474636789537
  C           1.55002398747108      7.10452600388407      1.88862106116001
  C          -0.50560711144111      5.03857272833282      2.95975222791784
  P           2.37836809832438      2.27510025779840     -1.25123402188957
  C           2.03945366824283      1.38541454961234     -2.85453328978132
  C           4.12799025522454      2.78146377010323     -1.81533845325577
  C           2.37294392353751      4.57515522015177      3.07958000065291
  H           3.31552019073016      5.05684062637015      2.79184175180902
  H           2.17834022959670      4.79019540544860      4.13292076761873
  C           2.55654641860526      0.97957752188531     -0.09520539169809
  H           2.87774193739625     -0.00026639982702     -0.41619671352597
  H           0.52874974871833      0.61206088747767      0.68567015967351
  C           0.73428593096774      5.03831178829356     -1.15840157948813
  O           0.34902599688390      5.78565276358399     -1.95589833871240
  H          -0.10547867436900      2.88362191791436      0.12393141128666
  C           2.01913033869819      7.68171647323317      3.22524980162493
  C           2.69621847016111      7.23888808343385      0.88302067089235
  C           0.36087397785045      7.89804923300562      1.34703028136026
  H           2.93583857663725      7.20446146982497      3.56249442607978
  H           2.22942869660354      8.74256307773048      3.09203607231988
  H           1.27187901085178      7.58925200783589      4.00492308187299
  H           2.36927168680494      6.93586422092786     -0.11076191026218
  H           3.02557339781494      8.27606127499450      0.83974499388335
  H           3.54982282269615      6.62442744325747      1.16384697583352
  H          -0.05574025674400      7.39799265638766      0.47286247208729
  H          -0.41762811798907      8.02137537364375      2.09506184851604
  H           0.68860369607789      8.89140985118823      1.04342269323744
  C          -0.50886125549775      3.56244791364386      3.37550961578385
  C          -0.65590055797736      5.88261793152310      4.22247235793467
  C          -1.67538341770546      5.31218111621753      2.01034363558736
  H           0.19747747686472      3.37955748154008      4.18302143914907
  H          -1.49777246488861      3.27768270241454      3.73477953303598
  H          -0.24920121517172      2.90076063291910      2.54881800917391
  H          -0.78848281737591      6.93670040029439      3.99489962754544
  H          -1.54367711501765      5.54915717086820      4.76028162267914
  H           0.19597389267348      5.76389101318365      4.88891466145246
  H          -1.85151851486746      6.37755213653200      1.89362304654489
  H          -1.46788629265198      4.89402061017402      1.02282134541635
  H          -2.59193967051947      4.86511743366982      2.39317316857004
  O           5.03746112738760      2.02056766005818     -1.61896204383540
  C           4.29197420681380      4.15380831893822     -2.40620347149197
  H           4.89660561590580      4.10297468281094     -3.31003414416611
  H           3.32495742581757      4.61272998117777     -2.60180273712431
  H           4.82885521742345      4.76659663576569     -1.68262662004095
  O           1.82449702330335      0.20387464030067     -2.81657614332113
  C           2.17282806177981      2.19260323898417     -4.11193121793106
  H           1.63470760387275      1.70978701709570     -4.92473218964824
  H           1.80479478116113      3.20459286946704     -3.95525675061512
  H           3.22912211885846      2.23830858910003     -4.37702919509189
  C          -0.75726665190372      1.91963425347724      0.05931277074598
  O          -0.31685280514375      0.98928838955745      0.99744333563465
  C          -0.75396390903706      1.40414890709569     -1.36221625524492
  C          -0.82657518797556      2.28498025273212     -2.43450170246470
  C          -0.98282594794161      1.80595567867346     -3.72295939891429
  C          -1.04795207457593      0.44279373929920     -3.95406643113849
  C          -0.96009089924733     -0.43912401452928     -2.89169727546204
  C          -0.82860512886872      0.03814596806398     -1.60040988383760
  C          -2.20611238165701      2.27531396835116      0.40293187539417
  H          -0.78178650917540      3.35298073251833     -2.25709688730652
  H          -1.05254617473255      2.50211439302259     -4.54652357908058
  H          -1.16171554789623      0.06892608234937     -4.96061462302410
  H          -1.00063976421031     -1.50335953166394     -3.06620997665743
  H          -0.78797620569365     -0.65148821444987     -0.77007909142354
  H          -2.29253587474430      2.56257517352584      1.44531012215394
  H          -2.81778392968901      1.38975344444380      0.24104797397170
  H          -2.56806335341497      3.07579367889881     -0.23633029183233
