18
Coordinates from ORCA-job NEB E -30.004092303070
  C          -0.43062406041429     -0.13362980691030     -0.70438000311214
  C          -0.10409386518858      1.25756633213109     -0.57907483471407
  O           0.63283934480090     -1.04958693746679     -0.59744914510114
  H          -1.06792592602957     -0.36368341394837     -1.56633005698984
  H          -0.77625576954637      1.98425003019669     -1.03802266550112
  C          -1.29314606882207     -0.51775110682466      0.73584733828893
  C          -0.90114662780098      0.32850519282887      1.82863792507313
  C           0.46588654501367      0.73021991202578      1.76891349482028
  O           0.53072211785401      1.65232555072016      0.47350333369747
  Cl         -3.02319240337777     -0.50867813320941      0.40157603143928
  H          -0.95920528419048     -1.55310969885064      0.81213269598306
  H          -1.61626385041909      1.07333832372421      2.15328469996031
  H           1.17648281778024     -0.06679936546060      1.55886606030004
  H           0.81064656816394      1.40963435078006      2.53963856008692
  C           1.47053562196927     -1.05037069785421     -1.73080558622328
  H           2.21877883174662     -1.81976903264828     -1.55221624932726
  H           1.96146228498484     -0.08065698203577     -1.86608160965684
  H           0.90449972347571     -1.29180451719784     -2.63803998902374
