18
Coordinates from ORCA-job NEB_product E -30.047288119970
  C           0.50911296966846     -0.89551994756531      0.81575262928675
  C           1.45620637744707      0.28967339815659      0.94659170645111
  O           1.14023160679174     -2.07315762969618      0.39471886013812
  H          -0.28305620072391     -0.59523099543821      0.10345396460016
  H           0.93311851223768      1.21699500217711      1.25525851345473
  C          -0.13007411365329     -1.17714615670917      2.18562930202254
  C          -0.74893668243004      0.01993143057671      2.82129365223629
  C          -0.47492778875114      0.41939086943903      4.04995579587726
  O           2.63249528757325      0.26527092413518      0.74031730317255
  Cl         -1.42613714715850     -2.40106451950058      1.94991162325107
  H           0.61604347612098     -1.64714871667874      2.82963215163335
  H          -1.48973964890564      0.53008655207361      2.22063356380153
  H           0.24715535259790     -0.09128971172978      4.66484333944731
  H          -0.95945940302322      1.27473562086283      4.48729006240002
  C           1.49767982380865     -2.09309533751017     -0.96873260130004
  H           1.90554642616376     -3.08430268689975     -1.15293988987277
  H           2.25445779558720     -1.33886110201284     -1.20082683029648
  H           0.61938335664905     -1.93436699368034     -1.60678314630349
