18
Coordinates from ORCA-job NEB_reactant E -30.046854091400
  C           1.01535789368673     -0.28717430893275     -0.11496189843933
  C           0.77243821087244      0.23263933506283      1.08495743784491
  O           1.65002191005638     -1.47930995694580     -0.30338923784528
  H           0.70586284226303      0.25133428882992     -1.00183875804622
  H           0.24198133149888      1.17442107867880      1.16587490570070
  C          -1.31870207239716     -1.48249430874912      4.35677796370741
  C          -0.90710263037955     -0.68207370959081      3.39034972331121
  C           0.43523504540257     -0.00650324303612      3.39357550406832
  O           1.19580275806743     -0.33619278759719      2.25574003693837
  Cl         -2.85360828058854     -2.25428834516176      4.33819818592321
  H          -0.73591938242304     -1.70252368245874      5.23806920372974
  H          -1.52012858274808     -0.50213394780575      2.51843097587519
  H           1.02764664951604     -0.32965299634932      4.25223834497853
  H           0.28934490001718      1.08539340187943      3.44676557248839
  C           1.97878913607728     -1.77803084378205     -1.63612511401037
  H           2.42854017386265     -2.76916620218731     -1.62597693498696
  H           2.69889822424625     -1.05883442990425     -2.04283520624613
  H           1.08904187296952     -1.79070934195001     -2.27635070499168
