25
Coordinates from ORCA-job TS E -46.562892946040
  C          -0.25694694485031      0.05685412631170     -0.95905462339183
  C           1.14642381662034     -2.28684079321600     -0.08348915507204
  C          -0.19102193527847     -2.28280799519586     -0.30191904997245
  C          -0.88375145196436     -1.14263754725985     -0.75608447103776
  C           0.38731179075107      0.43291570065507      1.14504673704177
  C           1.24891357025038     -0.53874306420914      1.55036954924094
  H          -0.78701907706263     -3.11773233178603      0.04071070134246
  H          -1.96405899585431     -1.16665556639885     -0.75306053170641
  C          -1.00314100836752      1.28734518960137     -1.28468857529064
  H           1.61545823294757     -3.13330556837479      0.38891218302341
  H           0.78645948532849      0.10826312563078     -1.22690172604928
  H           1.80537871862829     -1.61289372517211     -0.59715104420207
  H          -0.63681953984896      0.40301342384805      1.46934385314487
  H           0.92488199044379     -1.33895356946565      2.19517981239361
  H           0.76071862013833      1.38108245549856      0.79874008575639
  C           2.72024235266920     -0.30614998347155      1.53885774281310
  O          -0.50242338284436      2.27675591921643     -1.76096069243689
  O          -2.30664778280780      1.20579163149273     -0.96516027700266
  C          -3.08541742915977      2.35864224967787     -1.24599803050068
  H          -4.07081422208748      2.17077921700308     -0.82727339735737
  H          -3.15249392180782      2.51785958343544     -2.32424834930325
  H          -2.63403097849913      3.24197148748427     -0.78952516771911
  Cl          3.29204769155424      0.46680229745814      0.04338934461596
  Cl          3.13722106407235      0.81090214490332      2.90074914975631
  Cl          3.64952933702887     -1.79225840766699      1.80421593191361
