19
Coordinates from ORCA-job NEB E -37.467723871790
  C          -0.97120581325745     -0.63401068044408     -0.83162953845385
  C          -0.13045275314247     -1.76589804382727     -0.66048849509262
  N          -0.75364703008230      0.17576310588503     -1.91005705253322
  H          -2.00587298063741     -0.70760594374623     -0.52244384033304
  H          -0.49239945392045     -2.56329288041475     -0.00077121753838
  C          -0.13194959117824      0.24341176438341      0.83873968843229
  C           1.20220365780748      0.39146053044248      0.42465029760155
  C           2.01330758287541     -0.72622671727484      0.33523271042157
  O           1.09066688131786     -1.70200327201698     -0.96127922340085
  C          -0.95337292097198      1.45647470473747      1.12794177049769
  H          -0.34389315487330     -0.54219511316211      1.55537261753231
  H           1.46633145132080      1.27758196221972     -0.13494003320437
  H           1.92364821514464     -1.50997356025550      1.07148740696083
  H           2.98654047477391     -0.63699326675004     -0.11853398479563
  H          -1.22674033501717      1.06490235630781     -1.93383658340244
  H           0.20989032151057      0.20022189388196     -2.21494937471381
  Cl         -0.40786760238999      2.15697371070762      2.70641214318875
  Cl         -0.79149691368797      2.74184740581694     -0.08249805421774
  Cl         -2.68369003559194      1.07956204350936      1.31159076305098
