19
Coordinates from ORCA-job NEB_reactant E -37.499342375660
  C           1.71216995361423      0.18731685760310      0.16060904465658
  C           2.77324802061124      0.33660067773765      0.95176425525411
  N           0.46666557011094     -0.23242590806599      0.59944048327742
  H           1.82015848800973      0.30452040714358     -0.90628707664893
  H           3.75377164827486      0.57592910657203      0.56331893660753
  C           3.23665058628008      3.09434866504126      4.19912830895354
  C           3.22829689109969      2.34370585779968      3.10910806025968
  C           3.58713182617609      0.88737064743145      3.08783183886833
  O           2.68711226169498      0.13145218413906      2.32084113867244
  C           2.89501743960834      4.53813124279804      4.25833214659077
  H           3.52117387357200      2.68507272300800      5.15875360995121
  H           2.93711561755806      2.75134053562013      2.15038371028765
  H           3.56197435965345      0.46195148258015      4.09374014030947
  H           4.60940483962963      0.78429667686603      2.68472118869558
  H          -0.31961132353095      0.15363783621412      0.09957238001093
  H           0.37163772646183     -0.17839413031158      1.60407225197347
  Cl          1.57527891445348      4.78922077090006      5.44135735924507
  Cl          4.32237484588813      5.46113148229944      4.82648517970252
  Cl          2.38252846083421      5.21849288462380      2.71062704333265
