22
Coordinates from ORCA-job NEB_product E -32.806854377640
  C           3.02271406354242     -1.20112986952661      0.40566508481959
  C           1.63527189796641     -0.80572070241730      0.90825212048021
  C           3.19340162039852     -0.69300782057918     -1.02456064304823
  H           3.78108416597721     -0.70380192357983      1.02090973377939
  N           1.48736926655993     -0.89393713811441      2.24911916399676
  C           3.18819873351186     -2.73418266499484      0.56391040432243
  C           2.02202716605859     -3.46121922218823     -0.04014081292520
  C           1.16511693171022     -4.18687278500855      0.65197728108293
  O           0.73846374360324     -0.44366058068592      0.18250052869221
  C           4.50297249535037     -3.22370398213677     -0.04506356022029
  H           3.20719752191286     -2.95367093390857      1.63805958517370
  H           1.91189886076235     -3.37142904773644     -1.11134766619995
  H           1.24824712569923     -4.30175062275690      1.72115500028502
  H           0.34240391288128     -4.69860884073309      0.18367436560331
  F           4.52443686860112     -0.52790790155748     -1.32599108862394
  H           2.71910975898541      0.28671137587985     -1.13439369611833
  H           2.77635853757121     -1.37835138428421     -1.76494294463746
  H           0.58517192408138     -0.69344193677925      2.64748251702474
  H           2.22418779504749     -1.20385726024400      2.85585877733155
  H           5.34436676161229     -2.67733185593475      0.37455579621788
  H           4.51260612688334     -3.08745057137330     -1.12239266576743
  H           4.63269472128326     -4.28277433134021      0.16671271873112
