22
Coordinates from ORCA-job NEB_reactant E -32.773716419240
  C           1.50342182504687      0.16144466033564     -0.04609147540522
  C           1.76224760591666     -0.77803065636054      0.87393090880942
  C           0.71376260069451     -0.10435073831541     -1.27884916713140
  H           1.91343579027304      1.15006894049572      0.07922348888719
  N           2.53389380337686     -0.55667197438968      1.99923567982509
  C           3.71213130672075     -4.53187701633450      0.82416938837868
  C           3.34534338568776     -3.30254898265110      0.50349556995742
  C           2.00661221159271     -2.94178497435451     -0.06407255854883
  O           1.27800878635575     -2.05736148731385      0.79408879610600
  C           5.04439583290057     -4.90048547924661      1.38390665700545
  H           3.02755312424971     -5.35642672819172      0.66817686863341
  H           4.01601611395688     -2.46773785609909      0.65942860254309
  H           1.36988717386704     -3.82439474866319     -0.15738905755275
  H           2.13687492481600     -2.48028352877838     -1.05090519724681
  F           1.53752350093378     -0.37622931425687     -2.37025847852421
  H           0.11983682028182      0.76667452134853     -1.57213362414347
  H           0.07053578672998     -0.98174432674275     -1.16171348206699
  H           2.38487444171456     -1.22580290802653      2.73896639230736
  H           2.61803691382020      0.39927016496273      2.30423491735622
  H           5.66827009509706     -4.02085907893473      1.51959611371401
  H           5.55326202670820     -5.59381918162396      0.71473626995159
  H           4.92317592925927     -5.40084930685918      2.34432338714475
