21
Coordinates from ORCA-job NEB_reactant E -43.464976815220
  C           2.25481343430053     -0.30620979967936     -0.49778640524853
  C           1.95478580438489     -1.25727471172965      0.39362571618892
  Br          2.15488785201941     -0.38792652760678     -2.37947847339852
  H           2.51402891973071      0.67031332940030     -0.13080165526972
  O           1.99908602869643     -0.86608571988169      1.69148897376762
  C           4.01794509671447     -3.23363905762458     -2.32293084484588
  C           3.45676498761181     -3.27979161816100     -1.12579056860811
  C           1.97624728582830     -3.28859311942082     -0.90542052073399
  O           1.60658636963406     -2.55783493433997      0.24881779617107
  C           5.46762261185378     -3.22703248591714     -2.60452568502756
  H           3.40876697499359     -3.18407272286934     -3.21750538918115
  H           4.04985181933538     -3.31329301737195     -0.22083074087273
  H           1.65243358624332     -4.31088519846140     -0.67597655116324
  H           1.43584082540104     -2.94549271147991     -1.79254455076134
  C           1.77375343623111     -1.84709896451252      2.68856706097371
  H           1.87206172066601     -1.31648547021191      3.63278201460746
  H           2.51483957593151     -2.64824619359488      2.63424282578982
  H           0.77295181474610     -2.27557215324091      2.60263760173941
  Br          5.91398206708015     -4.76727252367793     -3.75421241558516
  Br          5.93478524877771     -1.58034009779088     -3.58523217335845
  Br          6.60056453981970     -3.32216630182770     -1.03382601518363
