21
Coordinates from ORCA-job NEB_product E -43.496142520820
  C           3.58951250457006     -1.65353658391493     -0.31267412341920
  C           2.68622931992576     -2.23157927177834      0.77662505133633
  Br          2.83818396513228      0.07814727582348     -0.82174116996558
  H           4.55761485709595     -1.42119368098461      0.14332398788578
  O           2.47997820562086     -1.34487419270718      1.73335471658956
  C           3.72555497303756     -2.63978764290109     -1.47928091997859
  C           2.64083483427995     -2.45866244663915     -2.50844119795740
  C           1.57559111205946     -3.23397895397306     -2.56846336473763
  O           2.25017003940974     -3.35031388145512      0.75910918358217
  C           5.09697831086718     -2.59093573018890     -2.13442967041336
  H           3.61236897693361     -3.64249467816042     -1.03851393558142
  H           2.77265317586012     -1.63332153251248     -3.19559631462416
  H           1.42734507972060     -4.05111985767069     -1.88178950386454
  H           0.80633212330629     -3.06905369995700     -3.30191580810558
  C           1.65089227218962     -1.75413555326685      2.81569265562284
  H           1.60117921340224     -0.90513334975852      3.49165404855743
  H           2.08525960551152     -2.62228816524975      3.31443055154351
  H           0.65628686427489     -2.01430410691472      2.44982010332654
  Br          5.16700439914007     -3.89786967151833     -3.58666117716027
  Br          5.52969115438123     -0.84253792199116     -2.87076482315669
  Br          6.50393901328100     -3.06802635428117     -0.84643828947974
