23
Coordinates from ORCA-job NEB_product E -55.320516558020
  C           0.92047520421242     -1.81814382598440      0.78590340735305
  C           2.24850594439721     -2.60260378513141      0.72037803559735
  C           1.06585211555839     -0.29143380690385      0.74285354271656
  H           0.48951452338844     -2.03812379578194     -0.20450330775307
  C           3.47279309609522     -2.15583196873571      1.49980598209394
  C          -0.17282479535889     -2.38674307469575      1.74726552354981
  C          -0.84667455951159     -3.50223030834295      0.97895967781736
  C          -2.08166058074457     -3.42787756469188      0.52233843181536
  O           2.33161956239128     -3.51859159282166     -0.05210421173672
  C           0.19536698566518     -2.91632401079632      3.13213221027462
  H          -0.90139217538561     -1.58183740521772      1.91002485225246
  H          -0.22976727584136     -4.37058397387262      0.79015627735466
  H          -2.70498577180300     -2.56613974599918      0.69587743448908
  H          -2.52036761917233     -4.23459190830399     -0.03699446018041
  Cl          2.13222745353148      0.09195831469382     -0.65630970932105
  Cl         -0.53912631235577      0.42257601032473      0.38035623527065
  Cl          1.71094369810112      0.54061016245957      2.15838597794735
  F           3.20455848708587     -1.78081966201973      2.78080462477424
  H           3.92346095756494     -1.29612873749241      0.98838341329633
  H           4.18772605535427     -2.98450125844247      1.53717238915107
  Br          0.70519137340297     -1.56418963107728      4.42964973966873
  Br         -1.42910425197988     -3.73652891636096      3.89260158106220
  Br          1.53886788540421     -4.31791951480591      3.09876235250642
