20
Coordinates from ORCA-job NEB_reactant E -47.564444137050
  C           2.17777192075644     -0.29871035466533     -0.39803681417042
  C           1.48569724089550     -1.38935806359517     -0.71804285936779
  I           3.17998202768831      1.10224463717534     -1.59942104643270
  H           2.25139974787399     -0.02369597165385      0.63899686587408
  C           0.83670651608733     -2.16684327230495      0.42481435677352
  C           4.11265614399296     -1.48650609686090     -3.95351906828592
  C           3.24139327701440     -2.04912801956680     -3.13128320849626
  C           1.78676570437516     -1.69410514747669     -3.10135207344707
  O           1.18238707741259     -2.01892053131594     -1.86821264559058
  C           5.55279238986299     -1.80091704180502     -4.04624162210714
  H           3.80002629964778     -0.71418323967566     -4.64652799630314
  H           3.53199669304375     -2.82280734651598     -2.43236801303698
  H           1.25074650016078     -2.32468502949539     -3.82103178734931
  H           1.61807826936114     -0.64710041521694     -3.37337815299152
  F          -0.50462868827636     -2.19215319370992      0.27352916539275
  F           1.25422253274703     -3.45077221241886      0.40771476818019
  H           1.06025124178045     -1.74752219052437      1.41649760135620
  Br          5.95166047467340     -2.48227280177876     -5.85663610023392
  Br          6.59825131318471     -0.14716397203350     -3.78277951130761
  Br          6.18444331771766     -3.11049973656130     -2.76382185845638
