22
Coordinates from ORCA-job NEB E -53.302132961670
  C          -0.14813824841749      0.29156040188406     -0.56769899840684
  C           0.72814557723503      1.32170677009228      0.04589984259211
  C           0.08207159880975      0.07860545463695     -2.06073498431427
  H          -1.19275799890500      0.61400913937912     -0.44694880543641
  N           1.88030256269779      1.78983434650465     -0.48171134206679
  C           0.02656752880222     -0.97679016643822      0.36341060786365
  C          -0.01587528645670     -0.47902913207804      1.76859046479626
  C          -0.38930913239428      0.95260055162205      2.00561287161095
  O           0.36971442575988      1.84975491755502      1.21191218734312
  C          -0.98942459668868     -2.12359402264579      0.13565537355568
  H           0.99804689413540     -1.41453732680367      0.09731775885493
  H          -0.55870458550427     -1.12844596431013      2.44529563647098
  H          -0.17555530756020      1.23850112391152      3.03681347775537
  H          -1.46439753174603      1.14102787679537      1.82276806851004
  Cl         -1.23381553510583     -0.85277300935157     -2.81100958820358
  Cl          0.08067603188856      1.67180297063088     -2.90727068440690
  Cl          1.62980055940557     -0.72025883508471     -2.39362342430952
  H           2.29373356835553      2.56823293818993      0.00733411687956
  H           2.05655940638877      1.70830171481823     -1.47018711766740
  F          -0.70365544070601     -2.88437596992038     -0.93813058250700
  F          -1.02858223321382     -2.97488984591641      1.16688448964777
  F          -2.24540225678019     -1.67124393347113     -0.03017936856171
