22
Coordinates from ORCA-job NEB_reactant E -53.365645869020
  C           1.36900557927383     -1.22756597894599      0.50139044605226
  C           2.32176999903534     -0.86037394730893      1.39020079753956
  C           1.57088715607690     -1.18110936619340     -0.94945187410979
  H           0.41408297923863     -1.59251385275700      0.82729590852064
  N           3.56828082089975     -0.43890184352340      1.05841311717426
  C          -0.31312273900191     -3.55008687786972      2.94315535010773
  C           0.84891669968158     -2.91955198926588      2.99044657512124
  C           1.00251469684792     -1.45994926055253      3.29010954183793
  O           2.17690960698118     -0.90531916379461      2.73912754700159
  C          -0.43038765534486     -5.01905475293720      2.68473711743447
  H          -1.26328430849610     -3.05973970759874      3.09326343778498
  H           1.77526840342044     -3.45472634305391      2.82913043406161
  H           1.13106791943662     -1.33154567929490      4.37109505529569
  H           0.11676804264505     -0.89357867957400      2.97694230407520
  Cl          2.93526135216690     -2.23004588127486     -1.49354850945076
  Cl          0.11635878631837     -1.69796110160997     -1.80713723820382
  Cl          1.97704937086346      0.49026498362718     -1.53740261104624
  H           4.10923979169159     -0.03366071447117      1.80360103803653
  H           3.71995236751897     -0.08493766495891      0.12887060980402
  F           0.74937688340743     -5.62787168543718      2.51991146281669
  F          -1.05130849201712     -5.65220418160484      3.69717232745949
  F          -1.15640726064398     -5.27586631160005      1.58367716268670
