18
Coordinates from ORCA-job NEB E -40.439609402020
  C           0.57383791645394     -0.58492167501819     -0.78184598862198
  C          -0.73190733743259     -0.50625533623340     -1.29221199873596
  C           0.89922224903442     -1.75362723300907      0.10415272167071
  H           1.38364908050146     -0.41950478723224     -1.49101383374827
  I          -0.93659706286014      0.48095079484458     -3.20544717229076
  C           0.48896901938433      1.12805552835336      0.22720925604682
  C          -0.65497480583145      0.98626433448301      1.02590254157394
  C          -1.90911643196832      0.84301670472474      0.38497519904946
  O          -1.74972632498303     -0.53550939777031     -0.54687700342716
  C           1.73268699360528      1.36509838204824      0.88002265443664
  H           0.40377604423140      1.72492054741218     -0.68069915932375
  H          -0.54379720106652      0.66591909617357      2.05065406786806
  H          -2.14982939551158      1.53955717234754     -0.41480084788535
  H          -2.75681254385892      0.59551980389998      1.01025545211424
  Br          0.86972927285228     -3.36536043697082     -1.07902431946901
  Br          2.70711820245573     -1.66509788971072      0.83968797151787
  Br         -0.33152508513646     -2.12430474018223      1.54700252305591
  N           2.70529741013017      1.62527913183979      1.42205793616861
