18
Coordinates from ORCA-job NEB_reactant E -40.477458507880
  C           1.17974077598791     -0.45035826930351     -0.09823285754784
  C           0.81533556159623      0.83654805760948     -0.00866662738908
  C           2.11204856037031     -1.01927702939891      0.89332346428496
  H           0.80470355334815     -1.08843913032939     -0.87947054874573
  I          -0.53015620302415      1.63641511729415     -1.43811703759122
  C           1.33338002976831      4.33594381192709      3.16677468542851
  C           1.79478165740840      3.48998691920450      2.24993978358141
  C           0.96700712130408      2.95488435670420      1.12778597152830
  O           1.29840170895839      1.58747876203970      0.96836063124105
  C           2.14818001716251      4.85150997644133      4.19571471675106
  H           0.30857949192360      4.68561453676062      3.16668907309341
  H           2.81893174717046      3.14393308776510      2.27151831634540
  H           1.20775913849294      3.50264264777188      0.20315690426529
  H          -0.10564289381509      3.06370459563560      1.33401259447033
  Br          2.48964212570891     -2.88659701055557      0.52141801815795
  Br          3.83285790928881     -0.04578636160613      0.91944449186340
  Br          1.38241202478111     -0.89527963291095      2.73277010149040
  N           2.79533767356910      5.28457556495081      5.03597831877240
