71
Coordinates from ORCA-job A2S E -102.045515148680
  Ru         -0.37947774859177      2.02064738040342     -0.06089007448869
  H          -0.33570011867903      3.57055061856873     -0.12275241562872
  N           0.97098437259856      2.19391417679517      1.52626070232692
  C           0.55064052435495      2.62282960774097      2.73069463419683
  C           2.26864459341640      1.87351321706300      1.38226380517780
  C           1.40234814169600      2.70069542678447      3.82346055177096
  C           3.16699267705220      1.93373929326418      2.43866233671812
  C           2.73173037960609      2.34027184680200      3.68666307246297
  H           1.01947943789059      3.04665953186427      4.77154044900320
  H           4.19407466529352      1.64986047785249      2.27402172569752
  H           3.40877600691243      2.38448668515635      4.52505325438735
  P          -1.91769145186217      2.18125670047882      1.62583026318761
  C          -3.43037545364341      3.32098298239642      1.48714378665656
  C          -2.39963653643720      0.60714708928136      2.58976421315032
  P           1.53582996028025      1.89111361537839     -1.24816676919305
  C           2.11716736126214      0.95413632404197     -2.71774090107967
  C           2.13189966004655      3.54642534840644     -1.79608862129532
  C          -0.86926537279940      3.07999005367459      2.85757650298077
  H          -0.91033432737900      4.13106062618544      2.54418844035497
  H          -1.22783564500395      3.00480889339313      3.88718348384347
  C           2.75271633945564      1.41622395935038      0.04133439449492
  H           3.76150611578118      1.78432254032806     -0.17595661878958
  H           2.77812408403859      0.31412557018307      0.03998162165231
  C          -1.58167062156928      1.88737659146287     -1.45470801706547
  O          -2.33951010532703      1.79423679700654     -2.32086343293056
  H          -0.31193283996624      0.47724690174919      0.07510389622169
  C          -3.89231979850615      3.94700945960733      2.80400912912104
  C          -3.05247479903784      4.45619598805572      0.53355344075758
  C          -4.56051848178522      2.52467270877436      0.83338355591777
  H          -3.12862142401958      4.59896212592683      3.22134627515369
  H          -4.77345332930112      4.55697535681322      2.60599423023642
  H          -4.16444326573318      3.20829221155161      3.54847655094286
  H          -2.79169556851534      4.06194162160572     -0.44651274436897
  H          -3.89668460634670      5.13581124409612      0.42193889015571
  H          -2.20496882309263      5.02961216060452      0.90321606945768
  H          -4.17020603139807      1.96064894379111     -0.01534596807893
  H          -5.03058755605570      1.83885147953148      1.53331869325727
  H          -5.32890523859750      3.20377159859858      0.46554213800046
  C          -1.08611743451277      0.01482307258702      3.10992367531604
  C          -3.33605684785572      0.79477960268325      3.78124822084265
  C          -3.01293814624397     -0.37752664818890      1.59358958113519
  H          -0.67630457755055      0.59740574455885      3.93321572361691
  H          -1.25776555370783     -0.99803632307629      3.47190518924121
  H          -0.34537720564278     -0.04303713009395      2.31326868065142
  H          -4.33859960478737      1.07503616315048      3.47125161913310
  H          -3.41111885506067     -0.15400570368442      4.31285337276438
  H          -2.95507593168574      1.53502731496990      4.48197652891422
  H          -4.02930952786384     -0.10396711087292      1.32685054001614
  H          -2.41097441582638     -0.40251591046122      0.68552871397342
  H          -3.03094114347860     -1.37845398264978      2.02256851543597
  O           2.06145785953319      3.99335947291641     -2.90656420578074
  H           2.44214502057682      4.17048652409574     -0.92519366916636
  O           2.81152388986320     -0.02236053617079     -2.66571141352290
  H           1.78493506880434      1.40401195021167     -3.67463915680967
  C           1.43981128400474     -2.09888021920276      0.66334883534040
  O           2.33216130405560     -1.43947239883462      1.15918411848693
  C           0.44309072169708     -2.79644821076673      1.51387640040080
  C          -0.79710441228907     -3.21255800184415      1.03518505581185
  C          -1.68618584325383     -3.85279945131403      1.87929790581936
  C          -1.34792127293372     -4.09435045819415      3.20137271051836
  C          -0.11771296469210     -3.67995262108972      3.68705660058075
  C           0.76793142324717     -3.02923515488681      2.85030727143761
  C           1.28855380381983     -2.24823364736261     -0.82362649086345
  H          -1.08281533799645     -3.01825979400600      0.01366046664087
  H          -2.64849602799735     -4.16828394690724      1.50292431469736
  H          -2.04432218442975     -4.60204788525252      3.85299558385866
  H           0.14730896189169     -3.86335833217775      4.71804026133097
  H           1.72889560557191     -2.69380413415022      3.21184282058500
  H           2.20090703927789     -1.93668487197232     -1.32716347654431
  H           0.48127362023086     -1.59109206057072     -1.15100445450604
  H           1.04103650919656     -3.27053246601098     -1.09605038372193
