71
Coordinates from ORCA-job A3R E -102.024053349530
  Ru          1.24495960920684      4.06633766245229      0.10288847201937
  H           2.55102484823517      4.82516493272859     -0.01236043743427
  N           2.21260588673306      2.84143328671810      1.51896128564423
  C           2.40095356013681      3.23852074044845      2.78507806376058
  C           2.63292576889292      1.59275204485205      1.14223315632627
  C           2.87553264851573      2.39616477990251      3.76880150046499
  C           3.10763802527805      0.68598482235263      2.12867717691758
  C           3.20785070581393      1.07867078931388      3.42994091233650
  H           3.00400787061691      2.75584455152665      4.77707436669605
  H           3.39271143232728     -0.30518129680944      1.81283701801443
  H           3.56553107538211      0.39945152459954      4.18906241701268
  P           0.84495417945412      5.35044896253859      1.98220280007915
  C           1.21662951494757      7.20882436619113      1.96945409492406
  C          -0.73940673922281      5.01309191701065      2.97359330132933
  P           2.18894992251785      2.51340142437086     -1.34388159229032
  C           1.82745109447731      1.60586541656145     -2.91475636836312
  C           3.92545830604076      2.93340606588791     -1.83401010380221
  C           2.15734002644821      4.68970813501835      3.09023029317721
  H           3.07303068065229      5.23238211171410      2.82545900083954
  H           1.94808898693709      4.85562375346512      4.14950520235706
  C           2.54454584632937      1.22308805910253     -0.20392149863659
  H           2.97955135502189      0.30183073139458     -0.56504183314810
  H           0.48906692379939      0.68642979824198      0.57059006856690
  C           0.44016132233175      5.20387248201654     -1.10203724093127
  O          -0.02991934247452      5.97010636763493     -1.82744709246189
  H          -0.25010426714206      2.96306476290465      0.07563148931201
  C           1.65771314111573      7.76758391248096      3.32356052356029
  C           2.35512151517178      7.42236932294430      0.96915949809380
  C          -0.00929474007525      7.96106867823395      1.45149090671695
  H           2.59863543544103      7.32908630853035      3.64636504180818
  H           1.81249181306630      8.84130430643680      3.22253606100293
  H           0.91716788292039      7.61291286852247      4.09994120123475
  H           2.04312868536178      7.13575451846293     -0.03424762527677
  H           2.63923892721629      8.47355330917072      0.95703303666770
  H           3.23534811594209      6.83776032553219      1.23123032393410
  H          -0.40448768062184      7.46867977773091      0.56354314008827
  H          -0.79108547346852      8.02697251529072      2.20347989374145
  H           0.27197739792988      8.97651654404745      1.17643853032675
  C          -0.66968424297379      3.52591790248475      3.34145966161606
  C          -0.93227714051716      5.80868292401128      4.26160497202974
  C          -1.91958467666321      5.25931703177241      2.02950255391782
  H           0.04211986847229      3.35215922680358      4.14620198500390
  H          -1.64401033916703      3.18028513614856      3.68659362694598
  H          -0.37471993135428      2.90577191756078      2.49412167244045
  H          -1.11412003945600      6.86179118616732      4.06671270498660
  H          -1.80421725223727      5.41697185968867      4.78562765393353
  H          -0.07690480336064      5.71002110385220      4.92679566095180
  H          -2.15051099261063      6.31772335935861      1.95126384633230
  H          -1.68968006640847      4.89018410194602      1.02708126811665
  H          -2.81245512071482      4.75187856469015      2.39233342740865
  O           4.49941686004635      2.60109334556233     -2.83539740165172
  H           4.45816966678329      3.39639428277746     -0.97267747243547
  O           1.69542308814018      0.41695799378748     -2.95727073529131
  H           1.87689193202649      2.23827265972497     -3.82148343201473
  C          -0.84608928748095      1.96664406836433     -0.01749947684876
  O          -0.35570620576493      1.04035615759663      0.90329785131779
  C          -0.80714160805208      1.48163272417713     -1.44929755249856
  C          -0.83965690003024      2.37921049818951     -2.51193542601996
  C          -0.95761621504358      1.92153899497472     -3.81437676133368
  C          -1.01783840464659      0.56286617517671     -4.06944279336540
  C          -0.95284803973027     -0.33514135073098     -3.01836887683753
  C          -0.86455554867699      0.12016028466995     -1.71421243615708
  C          -2.31222280043920      2.23765546274387      0.32787639933724
  H          -0.80570157872661      3.44482651884986     -2.31845567712363
  H          -0.99760686240395      2.63182198573165     -4.62702226850544
  H          -1.10020595971708      0.20486328738232     -5.08421193906133
  H          -0.98042621874107     -1.39658519488014     -3.21078117218395
  H          -0.84403818326381     -0.58439749956680     -0.89534765741758
  H          -2.41725802592355      2.49536847715052      1.37632997839357
  H          -2.87844380632004      1.32737626460864      0.14071283058895
  H          -2.71095542630102      3.03507996970311     -0.29322999918353
