71
Coordinates from ORCA-job A3S E -102.018689455350
  Ru          1.52286522968078      3.71910826935630      0.11420306191973
  H           2.87396670205260      4.39164940932570     -0.03670319704539
  N           2.30583460240935      2.80556491394537      1.84561925851275
  C           2.41831046129122      3.46866952576758      3.00627714563140
  C           2.70735307724029      1.49184680137606      1.78638005426988
  C           2.77026713169949      2.85361931326331      4.18833813087759
  C           3.05370702092714      0.81402519339288      2.99152668221352
  C           3.06304824048842      1.48185598792871      4.17741441915811
  H           2.83849198874313      3.42479445565143      5.10018173131075
  H           3.31645952981843     -0.23043923662885      2.92713030388559
  H           3.32207906231910      0.97842386643729      5.09695193730547
  P           1.01675203687333      5.38139612320948      1.63386363618966
  C           1.43236677121416      7.18855808639680      1.25224023608573
  C          -0.64655535881814      5.28568858864940      2.55816558012956
  P           2.46649094109546      1.83332859218135     -0.87125294535636
  C           2.18011831148132      0.61405471146198     -2.23704747847418
  C           4.25647198414602      2.06746389821705     -1.28725620773497
  C           2.21719477568445      4.95796279163401      2.96259585953083
  H           3.17065903876634      5.40324715303224      2.65316220065186
  H           1.94204693706506      5.36303555453128      3.93907684539295
  C           2.72826811477093      0.84008380062972      0.55832242235381
  H           3.14051682696810     -0.15271063184623      0.44958888031043
  H           0.20003757632168      0.16364434447050     -0.23802368659469
  C           0.89179906274642      4.54936159455915     -1.40579196810525
  O           0.53684417014811      5.09951768861867     -2.35573171099745
  H           0.00789118086113      2.70256992247443      0.19889206210792
  C           1.78215622199074      8.02894085899802      2.48127855333562
  C           2.64870731014674      7.16694327399539      0.32369268287609
  C           0.26557775682803      7.81044487034238      0.48509265991710
  H           2.67578917107902      7.65508216858854      2.97469388929110
  H           1.98617324696548      9.04930641047685      2.15839151714377
  H           0.97519376683757      8.06713465717118      3.20410063309033
  H           2.40970570042724      6.65786277973776     -0.60923838903698
  H           2.95372915662837      8.18690384380072      0.09500356397627
  H           3.49371079705926      6.65592763589972      0.78195030182868
  H          -0.06631023734522      7.13404007693686     -0.30242108326002
  H          -0.57208737902369      8.03835926727241      1.13892658933161
  H           0.58528805548556      8.74091520529605      0.01843198746432
  C          -0.64036772954176      3.91167796753270      3.23642392757026
  C          -0.91243178993504      6.34281866897388      3.62539423930178
  C          -1.75438305189744      5.31639804459023      1.50306316437262
  H          -0.00629813008823      3.90585449327254      4.12030790167375
  H          -1.64783170430060      3.63539587556902      3.54603238496126
  H          -0.28327516428444      3.13719703318539      2.55585846238579
  H          -1.05953590012963      7.32850461670705      3.19316569725278
  H          -1.82578054111460      6.07731148062372      4.15802223830924
  H          -0.10673574259626      6.38825619084483      4.35501301728326
  H          -1.98020167294773      6.33101442969965      1.18803724133283
  H          -1.44396029877982      4.75001087087180      0.62308165557062
  H          -2.66841534926757      4.87361995658397      1.89711440151691
  O           4.88325035591663      1.45800852784880     -2.11320176197077
  H           4.75233798659710      2.72378033281277     -0.54012257011590
  O           1.99171231718199     -0.54846997015740     -2.03851958068930
  H           2.29085227508369      1.04014055073571     -3.25176969069935
  C          -0.75270914122577      1.89524079440513     -0.15394871251320
  O          -0.05120933815137      0.88537668683989     -0.83149221837215
  C          -1.45004946779069      1.37369973250755      1.08281145561885
  C          -2.78955492260906      1.62340735594063      1.35275189517292
  C          -3.37548175360965      1.12609830807959      2.50476023056611
  C          -2.63552066982001      0.37848252080996      3.40343164404967
  C          -1.29850998607895      0.12781881113439      3.14517659724848
  C          -0.71235339651808      0.62093111527968      1.99516624900799
  C          -1.67347765902690      2.52178660366739     -1.19760687387804
  H          -3.38743440459179      2.20307133134713      0.66837020502749
  H          -4.41909237502279      1.32594821687344      2.69855927667150
  H          -3.09631511885438     -0.00522891533798      4.30107394337125
  H          -0.70688297794441     -0.44831314977313      3.84050276258337
  H           0.34014423205005      0.43352302234642      1.82179512986787
  H          -1.07632507440038      2.78478456243796     -2.06861371572788
  H          -2.17551896740066      3.41167500275198     -0.83112019416152
  H          -2.41145382197481      1.78377716444382     -1.50574456207564
