71
Coordinates from ORCA-job TSA2R_3R E -102.007737572160
  Ru          0.01075032441466      0.67175774442276     -0.66776552211777
  H           0.06537582731786      2.20218349744002     -0.78265721239550
  N           1.54692940630432      0.91174983440849      0.79654515913757
  C           1.28158494189973      1.45343521713179      1.99065069232210
  C           2.81843340139109      0.55794329934553      0.49785753236377
  C           2.25810803382006      1.61839143741907      2.95965768847249
  C           3.84529334349985      0.70505818401560      1.44226835499873
  C           3.56335616726618      1.22805897451319      2.68065282416990
  H           2.00210339919817      2.05303286821811      3.91299923998275
  H           4.84417195091751      0.39873679180837      1.17626588186693
  H           4.33900621389524      1.34619802190920      3.42173665449549
  P          -1.31136672611615      1.01666273922439      1.18636509411909
  C          -2.77706385678119      2.21817098627479      1.13226439799961
  C          -1.73786105038919     -0.48660114058754      2.26597405346042
  P           1.88716462556663      0.55682852638881     -2.01143128330858
  C           2.49282884855056     -0.10581381766869     -3.62511297659348
  C           2.51410541703434      2.27394085745177     -2.31787177054431
  C          -0.11220346942996      1.94489124889325      2.23899312796391
  H          -0.16199624590636      2.98354095488847      1.89083458652029
  H          -0.36412456835037      1.92122101224648      3.30185159687240
  C           3.04614197627272     -0.08511875414301     -0.78340279421027
  H           4.07961764104011     -0.16384018154144     -1.11541439041280
  H           2.58022363296817     -1.29944895314427     -0.45506059396412
  C          -1.36386451013193      0.60783049179322     -1.89021710002700
  O          -2.26100712545216      0.64119052416883     -2.61654751072191
  H           0.15002147962684     -1.10603785382120     -0.68390836126241
  C          -3.05048305993967      2.93447197887144      2.45644098362880
  C          -2.45021003235054      3.27700566816719      0.07691356448352
  C          -4.02039888224077      1.45912873201529      0.66811183667887
  H          -2.23389574243133      3.60034950916779      2.72390770381671
  H          -3.94676038104672      3.54330159767255      2.34209844174910
  H          -3.22135183650297      2.24649999350626      3.27648023688789
  H          -2.34300280705163      2.82272251204003     -0.90607667232921
  H          -3.25523303266241      4.00918872466762      0.03401145617710
  H          -1.52658249869805      3.80465689054706      0.30659026849959
  H          -3.77712614702806      0.82448332622010     -0.18385563845740
  H          -4.43853068779951      0.84791991613420      1.46350904070244
  H          -4.78762149046915      2.16546345710776      0.35424706420945
  C          -0.38797196886002     -1.13662196714796      2.59381273224626
  C          -2.46492508212911     -0.20853278177699      3.57904057442579
  C          -2.56946447098084     -1.44025413493966      1.40432031792418
  H           0.17387649960213     -0.54178098100602      3.31261754967816
  H          -0.54828328421698     -2.11946445909931      3.03647705555070
  H           0.23109146112357     -1.27292011432059      1.70553787031060
  H          -3.48275217628488      0.13419851846434      3.41412854759597
  H          -2.52037493230367     -1.13614336874962      4.14878635016693
  H          -1.93543135766083      0.52028556575700      4.18943605675330
  H          -3.61724244929769     -1.15491092769274      1.38858782512592
  H          -2.19999153578906     -1.43985291430030      0.37664853250240
  H          -2.50969805212944     -2.45496621797635      1.79486845241942
  O           2.61447808500944      2.82979516795716     -3.37327851431884
  H           2.78159192781280      2.77882129490442     -1.35961708122920
  O           3.40581664418558     -0.87514885480864     -3.70830230665311
  H           2.00680812336371      0.35886848699062     -4.50267825560934
  C           0.75181127473905     -2.22675383421713     -0.81112515834611
  O           1.79067186848030     -2.25171452821725      0.00718407490922
  C           1.10255358153109     -2.38464053321205     -2.28220774931450
  C           0.32278359624331     -1.88847239010701     -3.32075977358716
  C           0.63058457299525     -2.19053062260230     -4.63868082717100
  C           1.73066623250779     -2.97591290594150     -4.93325682079166
  C           2.52829987636508     -3.44968430095941     -3.90508230934964
  C           2.20892790145336     -3.16736898676971     -2.58909800658987
  C          -0.29357190790933     -3.29964411216423     -0.47951608766075
  H          -0.55071793244946     -1.28639442394481     -3.09971002768925
  H           0.00628933846206     -1.80653928099057     -5.43259485262567
  H           1.97453970924288     -3.20434656175493     -5.95987405750776
  H           3.39928068327700     -4.04724572266492     -4.12717046113349
  H           2.81757396498769     -3.54327664566871     -1.77970847351107
  H          -0.52948581581643     -3.28401218154527      0.57982521745252
  H           0.14456323193942     -4.26788805700070     -0.71693671518598
  H          -1.19683008769973     -3.16610204166814     -1.06957933402116
