71
Coordinates from ORCA-job TSA2S_3S E -102.002542103800
  Ru          0.38397647505398      0.89187088246296     -1.26906999007995
  H           0.44535447796509      2.41320533097287     -1.39630976284940
  N           1.59180856843729      1.11268796839188      0.44135865110642
  C           1.09277678672748      1.56078395104524      1.60003194042083
  C           2.89929940947702      0.74446494069369      0.36767305483896
  C           1.83857409819677      1.58304661482429      2.76511625289358
  C           3.69416347440119      0.73830757624210      1.53360942216249
  C           3.16078727134110      1.14229299909294      2.72936679138262
  H           1.40165779625350      1.94782670856549      3.68084787577757
  H           4.72043144662463      0.41551998092169      1.45637863522230
  H           3.75728018571937      1.14089362586190      3.62896896340975
  P          -1.28831320910157      1.21317035096089      0.28638753111102
  C          -2.69708591447270      2.42951748944536     -0.06656868117472
  C          -1.96074844902025     -0.28974799537702      1.24166523125314
  P           2.43511085120449      0.80903643372298     -2.32067240741533
  C           3.12354354482232     -0.37385516297089     -3.60044728463006
  C           3.30187144085137      2.35714510737877     -2.84304498111284
  C          -0.30894467406801      2.09717655075507      1.57948989608371
  H          -0.25766781439256      3.13972599401448      1.24292752417660
  H          -0.77014749052566      2.06940948169002      2.56932360214795
  C           3.41580735937431      0.29895409664997     -0.88727369168536
  H           4.49586829499766      0.31077323783366     -1.01079483453683
  H           2.98463333552455     -1.01886504012690     -1.23356853418633
  C          -0.69569128028659      0.72403130839943     -2.75476240089076
  O          -1.38700114705871      0.61455551979659     -3.67077856027560
  H           0.61496513481227     -0.87964501523850     -1.16448504160878
  C          -3.24797868842750      3.13693995045605      1.17254680339139
  C          -2.13684267485753      3.49335625028861     -1.01345805813854
  C          -3.80888314122699      1.68479682605396     -0.80621647938001
  H          -2.48795648992684      3.75270259846487      1.64706873386074
  H          -4.05956193775495      3.79502668694801      0.86407131001990
  H          -3.64567362731035      2.44605848189467      1.90681805503504
  H          -1.81134659763483      3.04188024489620     -1.94960330292874
  H          -2.90872835888570      4.22934672099424     -1.23284866522912
  H          -1.28798258653434      4.01521767918683     -0.57572606651542
  H          -3.38308520269093      1.07567426665619     -1.60369294532572
  H          -4.38534579285747      1.04975737175829     -0.13876639044523
  H          -4.49447096817521      2.40013179679910     -1.25794698872982
  C          -0.73946386005548     -0.90993124801853      1.92752507158738
  C          -3.01868228853089     -0.02219593743779      2.30776858010728
  C          -2.49921581038392     -1.27528852159504      0.20285865991526
  H          -0.43254777449216     -0.33350130326855      2.79780606453931
  H          -0.96794484932714     -1.92158785584895      2.26041170412821
  H           0.10613607988735     -0.97973555411035      1.24236444055608
  H          -3.96218976135469      0.29769618810357      1.87509324567361
  H          -3.20405273042155     -0.94846389486700      2.85164593799375
  H          -2.68306014297931      0.72114386127619      3.02793704425608
  H          -3.47410218308855     -0.97352058587172     -0.16924910654797
  H          -1.81403227753730     -1.33575916880683     -0.64483882999984
  H          -2.59424164107626     -2.26880895713385      0.63853267110865
  O           3.84833306559760      2.52921540659567     -3.89353200219953
  H           3.30804676171393      3.12501522934542     -2.03853159212078
  O           4.28874480230281     -0.63776208337069     -3.59464272725275
  H           2.42515743988236     -0.73768568318041     -4.37173717855672
  C           1.05359134005437     -1.94068232922937     -1.52696976143060
  O           2.34675413198129     -1.81376102497867     -1.93813334689027
  C           0.93576446219445     -2.85550655209270     -0.31752156243489
  C          -0.08551167947611     -3.78871101918957     -0.18286507424680
  C          -0.14813400174654     -4.60788898886242      0.93147487826445
  C           0.80487585743767     -4.51086278052201      1.92951768726789
  C           1.82882303286714     -3.58828761475876      1.80282676995903
  C           1.89306880131709     -2.77035150916893      0.69053861952521
  C           0.19337998864305     -2.37833385978314     -2.71620276699888
  H          -0.83959085028121     -3.89410188634599     -0.94587710251927
  H          -0.94778363101662     -5.32977555317979      1.01570904902226
  H           0.75340598367247     -5.15227474572173      2.79680642300095
  H           2.58294923906332     -3.50381265402245      2.57133048450579
  H           2.70258618742951     -2.05972924457383      0.60714561621171
  H           0.39211389974137     -1.71264821997190     -3.55468374594533
  H          -0.87059729139130     -2.34830295876709     -2.49557453902649
  H           0.48296579279753     -3.38697076104879     -3.00454881860820
