22
Coordinates from ORCA-job NEB E -35.545078146900
  C           0.33629653610665     -0.79517795501562     -0.06138432018076
  C          -0.71957825372394     -0.81139959237025     -0.97790976996481
  C           0.03672480801676     -0.93264251226414      1.40866058967496
  H           1.23186981739193     -1.31996601960808     -0.38489860929157
  N          -0.41452907659082     -1.12087644655166     -2.34686923659219
  C           0.81457453058669      1.10116129325046     -0.35577197766161
  C          -0.38970114303603      1.72541452540245     -0.10742644229576
  C          -1.51259060174535      1.42489909011589     -0.97911278659492
  O          -1.78721326715331     -0.06344643367417     -0.78297889862014
  H           1.63336092876510      1.24992171429754      0.33109289083795
  H           1.13508457681714      0.97095746501877     -1.38057698881938
  H          -0.60719522426523      2.08789967972003      0.88685409929890
  H          -1.31429278613152      1.53512772313572     -2.04726138323989
  H          -2.45097966001490      1.89763956555235     -0.70536986963144
  C           1.19859611173970     -0.59141602357806      2.33305142821179
  H          -0.21649888000503     -1.98801502485053      1.55442761029450
  H          -0.84666771726799     -0.34799685274773      1.66771823738517
  H           2.10710529652086     -1.09179954237276      2.00621901208403
  H           0.97155491261396     -0.92206768908184      3.34333222766745
  H           1.38111315146368      0.47917857664058      2.36715633136733
  O          -1.17793004826067     -0.70865887817428     -3.20071144536381
  O           0.59089598817230     -1.77873666284468     -2.56824069856580
