22
Coordinates from ORCA-job NEB_product E -35.573141544550
  C           2.54438572881736      1.02800673391148     -0.19858443139881
  C           1.30461180667656      0.59893721068510     -0.90595379210302
  C           2.56247486914655      0.47829248451376      1.23260646972631
  H           3.39974435634973      0.62951047815163     -0.75634299895006
  N           1.32261578840226      0.95199648882707     -2.41486795836619
  C           2.60817371187766      2.57575640495913     -0.26596292726109
  C           1.25406014319480      3.18580999852147     -0.05670749251065
  C           0.63343361365044      3.92441915844990     -0.95711924340477
  O           0.33316631249348      0.05428521405209     -0.50377400015074
  H           3.29458763558143      2.92219251387539      0.50843031929083
  H           3.00492705653500      2.88293057020249     -1.23441967265329
  H           0.78354261686735      2.97541999937266      0.89440486403161
  H           1.07935318569272      4.15047165919428     -1.91253213258684
  H          -0.34299558438056      4.33953768211794     -0.77919187425033
  C           3.96057045208131      0.49859582609946      1.83660614330148
  H           2.19361785224858     -0.54921172333524      1.21682063737161
  H           1.87998271535135      1.05884766536528      1.85412748841479
  H           4.64365600052535     -0.10450089908152      1.24261213331651
  H           3.93571987277340      0.09290919500757      2.84447495094290
  H           4.35509621408197      1.51036780319042      1.89023731411952
  O           0.25183251529015      0.97307103669068     -2.95832575139797
  O           2.39934313674309      1.16705449922896     -2.92073804548180
