22
Coordinates from ORCA-job NEB_reactant E -35.563809329600
  C           2.68741136275135      0.57236912939149      0.20830418807521
  C           1.91938341278188      1.02929959344127     -0.78183487782528
  C           2.35003965608250      0.66274622351399      1.65407707075195
  H           3.60984688627849      0.07554802418805     -0.05935671346437
  N           2.34961167137691      0.84012767127623     -2.16709311592932
  C           2.29526152183767      4.46039014659275     -1.81818063076413
  C           1.20029238781001      3.72470307241817     -1.77884610139296
  C           0.71012155820397      3.04264511041365     -0.53762055305865
  O           0.70611658081391      1.61208565364511     -0.65063892086205
  H           2.63007764938915      4.93003929924327     -2.72637901521400
  H           2.89653544323591      4.63551502932526     -0.93948996512019
  H           0.61621497946778      3.53776175730911     -2.66793392241562
  H          -0.33759009068108      3.29183113707671     -0.35158010992420
  H           1.31725391334812      3.33781957613015      0.32877045814379
  C           2.50175413131654     -0.69591894919653      2.33686242186009
  H           1.33104599144712      1.03364215205708      1.77493029646627
  H           3.03612195677837      1.37341111632333      2.12585933015756
  H           1.82193745445103     -1.41871236341810      1.89336587432410
  H           2.27221798259274     -0.60919716515763      3.39554593843943
  H           3.51844515692984     -1.06635040159098      2.23157226770641
  O           1.57385952826702      1.16038011262485     -3.03718183744688
  O           3.45294086552078      0.36796407439277     -2.35235208250717
