20
Coordinates from ORCA-job NEB E -34.586010734250
  C           0.69255073664443     -0.86736028521917      0.89014927511421
  C          -0.36270658336254     -0.97864487520176     -0.02683324608193
  C           0.44533912324056     -0.53912675715745      2.23457773346901
  H           1.56054527370241     -1.49262259531311      0.72102900985695
  O          -0.09621838269722     -1.75546756983773     -1.10809097268054
  C           1.33506256917208      1.08945729133092      0.36436460065988
  C           0.12256216375788      1.75116277311636      0.53777505455889
  C          -0.94704339783607      1.47338701634365     -0.31365305029444
  O          -1.39215695766170     -0.24366867795664      0.00895716783286
  O           2.39959366806851      1.28830875155799      1.15928750965372
  H           1.65198178795999      0.78630810199247     -0.62749135806613
  H          -0.08953910452417      2.15837913359287      1.51753569718426
  H          -0.74223354734650      1.32911738191406     -1.36586300525066
  H          -1.90268241224978      1.92679699604987     -0.10284665888523
  N           0.29970397099918     -0.22682185141707      3.32929633892603
  C          -1.08963756112153     -1.80780099185396     -2.11643562128934
  H          -0.88392502329040     -2.70383904654796     -2.69760397448476
  H          -1.03299687277961     -0.92751731733056     -2.76216474369377
  H          -2.08642442638108     -1.86084600900409     -1.67394559674307
  H           2.11822497570557      1.60079853094129      2.03195584021405
