20
Coordinates from ORCA-job NEB_reactant E -34.617986277180
  C           2.12988039534831      0.17481233998126     -0.26807231888867
  C           1.77604091670482      0.46635693433687     -1.53955609212626
  C           2.16553406837782      1.03311217616509      0.82793509945017
  H           2.43272810299068     -0.84285408990420     -0.07151223273084
  O           1.83605179063233     -0.53410728308710     -2.43663195101243
  C           3.74190579792451      3.06998963734129     -1.46910109623530
  C           2.60785573061655      3.32188309149698     -0.83066486562718
  C           1.27149912053218      2.78433146750376     -1.24949840765267
  O           1.34842894157614      1.62592251728775     -2.06369963903539
  O           4.96396049745018      3.51633981925224     -1.11419969121596
  H           3.79139330482037      2.46208727968329     -2.36147693588990
  H           2.59763730482982      3.92804397644387      0.06318251377074
  H           0.74018808353971      3.50955206512138     -1.87749544927007
  H           0.66042179342404      2.58049253704753     -0.36288158253439
  N           2.21741718035006      1.68097724061432      1.77807269880435
  C           1.45496452516120     -0.25523311398452     -3.77118081173122
  H           1.58330458015682     -1.19206483089218     -4.30888979748048
  H           2.08966277050863      0.51777061296017     -4.21034575972879
  H           0.41265215457832      0.06713848057640     -3.82433175656562
  H           4.90297294047752      4.02024914205578     -0.29205192430009
