17
Coordinates from ORCA-job NEB E -40.715399762260
  C           0.98001987039391      0.49987221422638      0.19867738648258
  C           0.05328979288123      0.71802816857940      1.23686134572299
  C           0.91397567067242      1.42829992374098     -0.97661254594609
  H           2.01210095049559      0.34461834763575      0.50750994822965
  Cl          0.59751699920526      0.22780307866619      2.84369373645987
  C           0.38002262041514     -1.34623141690086     -0.22309608568998
  C          -0.99096553714243     -1.20342031350325     -0.45452712805294
  C          -1.81060219915966     -0.75739274226574      0.60399086739458
  O          -1.18797933607877      0.76899240910196      1.03195894987293
  Cl          1.37073953184767     -1.97342743004087     -1.50622653931845
  H           0.71010921454920     -1.72931744181238      0.73812254604813
  H          -1.34507319836948     -1.11961804668179     -1.47030926762551
  H          -1.67931463482447     -1.22062155152798      1.57620490624447
  H          -2.83854590721077     -0.52134786430836      0.36470574772390
  Br          1.46146249613443      3.22420356439729     -0.30611175102494
  Br          2.18934839331345      0.99550552621574     -2.37320272219133
  Br         -0.81610472712273      1.66405357447755     -1.79163939432986
