17
Coordinates from ORCA-job NEB_reactant E -40.754081488380
  C           1.59028884973993      0.13704659772380      0.06327265057247
  C           0.92078745068096     -0.96937969244565      0.42466820553500
  C           2.00874809795846      0.30365830702415     -1.33838908102647
  H           1.83209406890721      0.90371127631383      0.77808076929005
  Cl          0.41552154853808     -1.20364594272688      2.05681154001379
  C           0.21380550312114     -5.04262483714088     -1.61833942617834
  C          -0.28646258564749     -3.83454332576766     -1.41622769724363
  C          -0.08145660516844     -3.07586256971629     -0.14341634782325
  O           0.64424712291865     -1.89580595364256     -0.48140807056608
  Cl         -0.01921157967242     -5.91136172590920     -3.07190037383156
  H           0.78882084198074     -5.57788074671294     -0.87693331567592
  H          -0.84184312465053     -3.31941168827422     -2.18524417379242
  H           0.48811414215863     -3.66542812071242      0.58310752741580
  H          -1.04713894656582     -2.79288677316909      0.29386641547560
  Br          2.93005347686880      1.98503267256275     -1.60294606003932
  Br          3.21470969409313     -1.14980636541123     -1.91871017669718
  Br          0.47322204473898      0.25668888800448     -2.57059238542853
