18
Coordinates from ORCA-job NEB_product E -30.509946228180
  C           1.26330696720768     -1.27637624322909     -0.46887285738708
  C           2.56791172058563     -1.44197425381867      0.30260313435828
  C           1.51077241969924     -0.48538128024875     -1.74867709702259
  H           0.58184043645501     -0.71728885824225      0.18803290535922
  C           2.43629773134317     -2.31307531277570      1.46270551663258
  C           0.63141517188420     -2.65798042019025     -0.70558810735852
  C          -0.58886895922933     -2.62392179150409     -1.56137208022240
  C          -1.78024873866791     -3.00080044790437     -1.13470055288468
  O           3.60289613173714     -0.89768527757510      0.03136625151256
  Cl          1.86741205057781     -3.71332834190944     -1.50476746416795
  H           0.41067148879910     -3.13797426043936      0.25227194805840
  H          -0.44007041431868     -2.29192850229390     -2.57781883557848
  H          -1.94117944785550     -3.35037675112032     -0.12802135704229
  H          -2.64419523596184     -2.97198799172283     -1.77532415395910
  H           0.57320613053711     -0.14707425230247     -2.17981376664451
  H           2.03969778241797     -1.10194412182139     -2.47117255730472
  H           2.12749038992571      0.38244445405071     -1.52708854881674
  N           2.32654437486349     -2.97604634695272      2.38913762246804
