18
Coordinates from ORCA-job NEB E -26.436247303660
  C           0.88460819959861      0.50944636447144     -0.70953260900854
  C          -0.27195182115598      1.02479717170220     -0.08801119332299
  C           0.82079902936424      0.08510478199365     -2.06483980373826
  H           1.82931213039953      0.99285742391874     -0.47276626667710
  C          -0.13281594011774      1.93991656631455      1.09690109760808
  C           0.94055839365559     -1.22761319563243      0.14333408056895
  C          -0.30893938609979     -1.75892916667298     -0.16306400441296
  C          -1.45490616379638     -1.08202653468861      0.33717901208616
  O          -1.40900900632167      0.42952446701850     -0.28344029171618
  H           1.81138946348411     -1.68618469231342     -0.30554691839964
  H           1.11428914286673     -0.86971855875519      1.15121941815948
  H          -0.41581072850953     -2.32449310694797     -1.07706345559274
  H          -1.45429203675552     -0.84507610492102      1.39917686465265
  H          -2.41925771724744     -1.43293241408361     -0.00798499973656
  N           0.79420730712249     -0.23587327632992     -3.16321552804381
  H          -0.04454189244028      1.34773378523190      2.01228614559843
  H          -1.02476739975031      2.55527414179603      1.18781905047984
  H           0.74112842570336      2.57819234789814      1.00754940149519
