18
Coordinates from ORCA-job NEB_reactant E -26.472757511950
  C           1.67102722116876     -0.17414831343860      0.14852488193299
  C           1.33032905096660     -0.22570145750005      1.45140613957630
  C           1.59115757741722     -1.18084680806884     -0.82083915284201
  H           2.06750378912151      0.75592408856640     -0.23522384492177
  C           1.50798560885536      0.96938973798524      2.34107645945938
  C           1.98288907890589     -4.55194735733764      1.95307274625354
  C           1.86816763968525     -3.32242501758594      1.49052664843017
  C           0.60133298515152     -2.52194651283616      1.56080009118839
  O           0.80179448848155     -1.24402189911840      2.14763416880571
  H           2.90320814581876     -5.10344343066862      1.87216269678721
  H           1.15582265723115     -5.06296753748836      2.41790587383093
  H           2.70629267273705     -2.82397524153173      1.02406838825424
  H          -0.12510387263550     -3.01569837418675      2.21176917035548
  H           0.16725116253700     -2.41445689687113      0.55912548800381
  N           1.56216781837504     -1.95502772849647     -1.67114619413650
  H           2.27069361554129      0.75455448863760      3.08845869796637
  H           0.57829207811861      1.16954953758646      2.86997644616401
  H           1.80028828252296      1.84688872235299      1.77400129489172
