20
Coordinates from ORCA-job NEB E -49.779634661430
  C           0.79433833663377     -0.94991393874230     -0.27958484083113
  C          -0.19654410872747     -1.37429228486526      0.62702428368403
  Br          2.57894304919382     -0.81674042488143      0.40298159404686
  H           0.80420441626735     -1.39385596673335     -1.27021131520307
  C          -1.45473193020997     -2.01908145230768      0.06316658455571
  C           0.21932348912124      0.84821213692219     -0.51502725426791
  C           0.20103030166642      1.35016899996570      0.79322659166359
  C          -0.70323586773629      0.75527830536458      1.71803423890726
  O          -0.27498149718567     -0.81031161449265      1.79056435025791
  C           1.15453633093294      1.50336922004131     -1.50955661046709
  H          -0.73236540884220      0.64316156832866     -0.99987168597822
  H           1.09774940696008      1.81917985195265      1.17413035692562
  H          -1.73873235852988      0.67276443252609      1.39848899671299
  H          -0.60497813817503      1.06633110766484      2.75071449854822
  F          -2.29026795956896     -1.07567539493496     -0.47118988402757
  F          -1.16082686138141     -2.86401229663937     -0.94498137296194
  H          -2.01825509646185     -2.56103306675576      0.83570162974803
  F           2.27326850351752      1.98442387522164     -0.96819723280497
  F           1.51692533875791      0.67866887220637     -2.50132210381264
  F           0.53460005376766      2.54335807015876     -2.09409082469568
