20
Coordinates from ORCA-job NEB_reactant E -49.814572997120
  C           1.73798775662569      0.07463674566544     -0.07200050283982
  C           1.60842879186811      0.56434304069827     -1.30398299625593
  Br          2.63734605215808      0.79875706090590      1.42194121710460
  H           1.27988583976346     -0.87420930241252      0.15617402724539
  C           0.81147332876471     -0.27728732056004     -2.28960295361872
  C           2.77769515188596      3.87458615741008     -3.38986554443198
  C           3.14506622968971      3.78500448246225     -2.12261164054135
  C           2.80604691326362      2.64816479878077     -1.21773930622162
  O           2.03642476302021      1.68678841521002     -1.91900011907889
  C           3.13960592279355      5.03621512531776     -4.25918795041627
  H           2.19005200625385      3.11805674972394     -3.88451495890925
  H           3.73509877332597      4.56227396316352     -1.65709000939073
  H           2.24720146762119      3.03898947137040     -0.35745619293860
  H           3.73900527506013      2.20241287777548     -0.84875285892465
  F           1.35921518262658     -1.50519951115777     -2.43300627205823
  F          -0.44926537988862     -0.48133834883544     -1.84432280285399
  H           0.76128908216959      0.20247329700723     -3.27690003389456
  F           3.89837805521059      5.95045869971870     -3.64079209170098
  F           3.81930788059960      4.64825749396390     -5.35219369908782
  F           2.04905690718800      5.68281610379209     -4.70759531118661
