14
Coordinates from ORCA-job NEB E -29.749339268680
  C          -1.67562792868864     -1.10781704593206     -0.18095892224677
  C          -0.49221575057900     -1.24441479308956      0.39601348783705
  Br         -2.05011393925974     -2.84602525507291     -1.43830445485815
  H          -3.00073316052949     -2.04807957179529     -0.69038829947969
  F           0.43682263850594     -2.23107924575553      0.20077376558109
  C           0.04429882142282      1.72653554797836     -0.62539635901176
  C           1.14654846499033      1.29762583239346     -0.04370583535568
  C           1.15211584283002      0.29166433702562      1.07149286944043
  O          -0.10894647504436     -0.32042342414805      1.29944445517072
  I           0.04830449964476      3.12456098440941     -2.19223526874442
  H          -0.94124414471926      1.39121468419529     -0.34913981756331
  H           2.12552927002018      1.64838135476825     -0.33671723225557
  H           1.39600376312435      0.78681749093856      2.01716282645023
  H           1.91925809828209     -0.46896089591556      0.87195878503583
