14
Coordinates from ORCA-job NEB_product E -29.908989515500
  C           2.32557047835833      1.78310865892471     -0.63249742684234
  C           1.28215077440685      1.91479438698356     -1.70520687919177
  Br          1.46644631450394      0.57559654949755      0.68969753655122
  H           3.20687502204490      1.24688824033853     -0.99013543746838
  F           1.37380986705732      0.89976415892115     -2.59273255246930
  C           2.65476307439978      3.10027133670531      0.03192472143363
  C           3.55348715884200      2.95509911809431      1.20563531790786
  C           3.32032598731284      3.53198603247958      2.37090743347082
  O           0.43991218521238      2.73159115846075     -1.80876721526818
  I           3.63725049355671      4.33432380707254     -1.49480968858892
  H           1.73996616229238      3.63718825076676      0.28735971761488
  H           4.43174791142854      2.34247612527065      1.05032778921390
  H           2.45311030325612      4.14979365864915      2.53664573883706
  H           3.98598426732792      3.40211851783545      3.20535094479951
