16
Coordinates from ORCA-job NEB E -33.429171701710
  C           1.10493038425672     -0.68324147830600     -0.77126328541692
  C           0.47635790553065      0.19899652409875     -1.62983259782195
  H           2.03203851374768     -0.36147033841772     -0.32966695309145
  H           1.04405432525076     -1.73531459236662     -1.00569921578391
  F          -0.40426352664489     -0.35024084496441     -2.51625708282561
  C           0.00894222746685     -0.33960402496970      0.91709984966161
  C          -0.86233364102917      0.70137405635303      0.62265237657211
  C          -0.30164125937701      1.88536290410556      0.09964574288531
  O           0.32090689001586      1.43094920927168     -1.41939271742440
  N          -0.56072921777300     -1.64399661568332      1.20564542325976
  H           0.89818715813498     -0.16260248391196      1.50805491679523
  H          -1.87214820622214      0.43150904183750      0.33840076696402
  H           0.61887347880585      2.24144149256238      0.54883485801111
  H          -0.97407523728725      2.67817874379976     -0.19802219527976
  O          -1.65601627556916     -1.89780882797483      0.76843811707980
  O           0.12691648069326     -2.39353276543411      1.86136199641504
