21
Coordinates from ORCA-job NEB E -41.719086114580
  C           0.80553409667745     -0.44297949875906      0.34542695119176
  C          -0.22847399489095     -1.17285354491105     -0.29190936590120
  C           0.85869214027319     -0.40440888434253      1.85148280512054
  H           1.80800835743663     -0.61940803110789     -0.03965133894867
  C           0.04176554624712     -1.82484419278816     -1.61709326477239
  C           0.33210452635356      1.29164355532787     -0.32018204758058
  C          -0.99329268067434      1.47628187432089      0.11414066673277
  C          -1.96347701149099      0.55317751222037     -0.36226754806847
  O          -1.46169042058671     -0.93932744621415      0.03720029481181
  C           1.30579327204779      2.25961922334495      0.06776663133860
  H           0.47387730447834      1.03025142618256     -1.36965661774561
  H          -1.17157197984326      2.01318737277072      1.03172546658317
  H          -2.02356206739641      0.42730543080471     -1.44183439086013
  H          -2.94107078685367      0.60448328447031      0.10123509633051
  Cl          2.08176318622978      0.74529765871268      2.45324846199120
  Cl         -0.66656923457923     -0.08405659238956      2.67018070928108
  Cl          1.39696868466807     -2.04839831758356      2.36786796945005
  H          -0.16782052541812     -1.12097824500152     -2.42846279745331
  H          -0.62716038192774     -2.67279621610848     -1.74292927948421
  H           1.07096979840342     -2.15881763699407     -1.69601459894684
  N           2.06921217084608      3.08762126804496      0.26972619692993
