21
Coordinates from ORCA-job NEB_reactant E -41.756455560440
  C           1.98190418968600      0.25057323796559     -0.13803280677233
  C           1.41848374966256      0.41384108829275     -1.34731870948846
  C           1.79111873921474      0.92633231336566      1.16372710936854
  H           2.69946460936142     -0.55290307629745     -0.07787760879273
  C           1.79642568361911     -0.53447720192124     -2.45358328801699
  C           1.20675686995283      4.83825472795877     -1.29257164221304
  C           1.33121913893884      3.52666211640080     -1.48865979958937
  C           0.22981324671527      2.54228788359466     -1.24597595246241
  O           0.50790173164084      1.28048366887587     -1.82219780256039
  C           2.26735105970399      5.73388306339890     -1.52338885733336
  H           0.28622135588481      5.28025352752231     -0.93426001354560
  H           2.26488503833705      3.11412450535802     -1.84701791539503
  H          -0.68586777963952      2.86994724545131     -1.75073481938117
  H           0.01139884562107      2.46407413431278     -0.17643819554560
  Cl          2.38455742388279      2.63260957677457      1.19990618937024
  Cl          0.07440104008579      0.93147915497113      1.69937600945165
  Cl          2.70485793321000      0.05565857710540      2.42005522475192
  H           2.49173800047775     -0.04310399882953     -3.13250958066229
  H           0.90404956102441     -0.78658269360089     -3.02081245379599
  H           2.25392424202234     -1.43912581243300     -2.07066725470692
  N           3.12599532059792      6.47042796173356     -1.71071783268065
