20
Coordinates from ORCA-job NEB E -53.378732995150
  C           0.44627623818143      0.61432779731516     -0.31053261093998
  C           1.25403076003731     -0.40679704173730      0.11597034421207
  C           0.52534272702753      1.76841560395419     -1.18344261013392
  H          -0.55450736228974      0.52212502513853      0.28372015959892
  C           2.63445658082497     -0.54517567402941     -0.60412304126245
  C          -1.47740631950303      0.28495248386532      1.28591941149198
  C          -1.80191773501042     -1.11508322185829      1.15547994879294
  C          -2.65066313715493     -1.55496829849766      0.22233536854189
  O           1.00230029074222     -1.24226277252404      0.98137939264831
  Br         -0.66391739994097      0.84533481974834      2.87067627786000
  H          -2.20260960359265      1.01099855128040      0.91894956000722
  H          -1.28658858302268     -1.79757554355534      1.81617298421220
  H          -3.11302179671730     -0.88967922643806     -0.48938026091696
  H          -2.90104701256559     -2.59807852524598      0.14670044458064
  Cl          0.23798101016109      1.33993078737035     -2.92967110103188
  Cl         -0.76500006632622      2.92074085672339     -0.73005870572364
  Cl          2.08939677753188      2.64142224839361     -1.10040006743653
  F           3.55058792747733      0.24629930908139     -0.03676953226616
  F           3.07245341494909     -1.79584486274435     -0.50523993672761
  F           2.60385328919067     -0.24908231624026     -1.90768602550706
