20
Coordinates from ORCA-job NEB_reactant E -53.481221198670
  C           1.36577708085739     -0.57340983091202      0.04865462532362
  C           1.98877865678871     -1.34097840894515      0.95086344897908
  C           1.93837558542871      0.12029650562899     -1.13431351807506
  H           0.29904065064048     -0.43961709267421      0.14423639136263
  C           3.48144920452091     -1.66033379195754      0.98511849453337
  C          -0.95069248758991     -2.08101639139407      4.49421120479045
  C          -0.31078650676269     -2.58865339140798      3.45551937679617
  C           0.02051202116177     -1.79363912046184      2.23128623996866
  O           1.41567937564668     -1.94252879821504      2.00280956006018
  Br         -1.38766204904228     -3.10137271532084      6.01288283325782
  H          -1.29357407102330     -1.05951712464733      4.55243130353626
  H           0.02447145392747     -3.61502490521872      3.44599134719996
  H          -0.23004088040067     -0.73459095552611      2.36757597940840
  H          -0.53500626967813     -2.19069454081769      1.36957411214665
  Cl          2.22591433264940     -1.04161334277359     -2.46981536468219
  Cl          0.75736795951952      1.32015992290305     -1.71609569965180
  Cl          3.45279365716133      0.98634880691558     -0.78471618925610
  F           4.17821370361055     -0.69412341720630      1.59716762315764
  F           3.70729053992415     -2.78550226634558      1.66554848687202
  F           4.01829804265991     -1.83468914162362     -0.22263025572776
