20
Coordinates from ORCA-job TS E -24.681006471420
  C          -0.62514267390481      0.43791537030990     -1.29009937935401
  C           0.64986725234905     -1.69335831882228      0.12759775242015
  C          -0.66138503395587     -1.74637518936232     -0.23795570989588
  C          -1.29025349707873     -0.71875207055111     -0.95092606883702
  C          -0.09860429850072      1.11213056129542      0.75628130668495
  C           0.65578829128109      0.18627429672190      1.43127349549000
  H          -1.29445157503606     -2.50974585294123      0.19547607337403
  H          -2.36883829654293     -0.73108192095593     -1.03026267110111
  N          -1.28197242136237      1.48011306951340     -1.92412294886677
  H           1.06145339529707     -2.46408983972059      0.76138663176134
  H           0.43210188929807      0.41282690834836     -1.50336648286758
  H           1.36929036113065     -1.15869437507829     -0.46680844662115
  H          -1.13465131583612      1.23264495356497      1.01270767098822
  H           0.20348024934323     -0.44325444284824      2.18081021915783
  H           0.39440741550902      1.97284944531584      0.33478180318591
  N           2.03359176889203      0.34355767824035      1.58139871262708
  H          -2.25411981436210      1.57779861178155     -1.66875189414091
  H          -0.79404557203756      2.36236332824441     -1.93204075419615
  H           2.46842018676403      0.85215747372712      0.82362365072767
  H           2.53506368875304     -0.50527968678322      1.79899703946338
