14
Coordinates from ORCA-job NEB_reactant E -30.631999158180
  C           1.20540219554809     -0.42396973590942     -0.44785277705163
  C           2.18680615534697      0.00497015876983     -1.23488020824853
  Cl         -0.38173161131731      0.21299171196675     -0.57976769021870
  H           1.36900983834570     -1.16662070262316      0.31181089002075
  F           3.41026935345953     -0.55397795534446     -1.10524289368006
  C           1.78125493974210     -0.90513031785649     -4.22123645456007
  C           2.83261917222724     -0.10590740727998     -4.20394265107585
  C           3.03519867864357      0.99258806886967     -3.20252090430479
  O           2.09471919025150      0.98137740677011     -2.13879375746784
  Br          1.57674568473171     -2.27785693417901     -5.49955086693623
  H           0.95834718113384     -0.84545399010310     -3.52699628187104
  H           3.62451159969828     -0.20428349957843     -4.93203037343472
  H           2.89525802373468      1.96590561503261     -3.68355623539758
  H           4.05988959845408      0.94356758146507     -2.81213979577372
