18
Coordinates from ORCA-job NEB_reactant E -34.099742135680
  C           1.17830699576953      0.10484878690187     -0.19611897369316
  C           1.07388765285051     -1.17769873326000      0.15248758807858
  O           1.52898553787594      0.47973221925544     -1.45300668463675
  H           0.98812500029498      0.88565162812992      0.52880996082126
  Cl          0.52202093737575     -1.54417031101037      1.77633938489533
  C          -0.98948940520939     -3.07041430058439     -2.94250478191037
  C          -0.71088208788841     -2.61584199198879     -1.73337459265401
  C           0.37586017843988     -3.18591654517352     -0.87467350836442
  O           1.40323186892458     -2.22754898102558     -0.61737246422082
  Cl         -2.23085352471738     -2.40568438551293     -3.92231287999716
  H          -0.47379652886249     -3.90066618401261     -3.40040408276671
  H          -1.24702048521521     -1.77391271542642     -1.31906338181794
  H           0.88335204852142     -4.01254172253681     -1.37353667688112
  H          -0.04368413564647     -3.53173145057016      0.08009726395793
  C           1.84348630109211      1.84525257855273     -1.60506713147597
  H           2.01539861702071      1.99941052151295     -2.66838272211568
  H           2.74878947036487      2.10909676552476     -1.04879789622877
  H           1.01868155900907      2.48433482122388     -1.27281842099018
