16
Coordinates from ORCA-job NEB_reactant E -32.032005790410
  C           1.53806621321984     -0.38686531144038     -0.40603147780419
  C           1.63115513297296     -1.22136450126691      0.63797258153850
  F           0.99377847037963     -0.69853959186567     -1.59497196498948
  H           1.90493889929823      0.62634675578938     -0.36963817070595
  C           2.23527956160221     -0.67694271382318      1.81123870320271
  C           1.58609602224817     -3.51592595565555     -2.64518069741238
  C           1.78967512508586     -3.52024086005244     -1.33008959016757
  C           0.72867170353407     -3.21284019504109     -0.32016818910880
  O           1.23754761153758     -2.50597611681882      0.79889682561685
  C           2.60588649893032     -3.83426313128096     -3.56360692326422
  H           0.62625368802119     -3.26479193484026     -3.07721220954110
  H           2.76225637601372     -3.76099009383291     -0.91998435853353
  H           0.35998806370888     -4.15027283716426      0.11370136547439
  H          -0.11602803127090     -2.68314732704321     -0.77508677123224
  N           2.71112062026256     -0.23816494739613      2.75425074913390
  N           3.43131404445569     -4.08792123826763     -4.31728987220689
