16
Coordinates from ORCA-job NEB_product E -32.026298703500
  C           1.70176869542796     -1.62072190744310     -0.20888394150147
  C           2.68922254566766     -1.96297216423236      0.90455741680647
  F           2.11862624380254     -0.52803864355259     -0.91941141143250
  H           0.72966804553465     -1.36187143767742      0.23582815496983
  C           3.87342955436371     -1.12472299061184      0.92263276136689
  C           1.52844458718875     -2.84596285938705     -1.14035256172676
  C           0.54991931378632     -2.54869776756389     -2.24764140791315
  C          -0.55919557997277     -3.23649858903199     -2.43463895752605
  O           2.49723056010677     -2.85856460730050      1.68252660622082
  C           2.81346264982134     -3.20293043131972     -1.71041511054958
  H           1.17700796806035     -3.68362006635257     -0.52555753100801
  H           0.82401786673843     -1.72203078987786     -2.88767446424291
  H          -0.83466322577162     -4.06548720229379     -1.80274328181728
  H          -1.23687606871891     -2.99996545434079     -3.23598624108502
  N           4.80701056237297     -0.46516176943458      0.93723823251857
  N           3.82402628159184     -3.48015331957996     -2.16267826307986
