16
Coordinates from ORCA-job NEB_reactant E -29.231116092090
  C           2.45476724982751      0.47089392351334      0.82835845441607
  C           1.41817855376369      0.39663699025116      1.65726830068735
  H           3.24577000712396     -0.25412559505480      0.81426028428950
  H           2.51810850433728      1.30031237470981      0.14806968975707
  N           0.39856876040971      1.45149406297586      1.63087420117669
  C           3.55383304797784     -0.25848965880243      4.01060988692278
  C           3.24110497341367     -1.37756821206641      3.38687940520423
  C           1.92518342753211     -1.65197381279510      2.71435961837194
  O           1.08802535810512     -0.52151188843642      2.57393657455194
  H           4.50970777195876     -0.12451586840505      4.48498454513101
  H           2.86585703277608      0.56744033806906      4.07942210106145
  H           3.93366620430891     -2.20637922536513      3.33737196937956
  H           1.34397021395378     -2.35070899919544      3.32583471171891
  H           2.09469803896714     -2.11592738248551      1.73246130208534
  O          -0.51130121586191      1.35719178472060      2.41609451163558
  O           0.54456207140635      2.34403116836646      0.82631444361058
