23
Coordinates from ORCA-job NEB_product E -51.676809174790
  C           2.52758501846568      1.41492026903414      1.28412842055002
  C           1.51713606718086      1.44360243277917      0.10343635564046
  C           2.77807764644374     -0.05781859218666      1.61032736335726
  H           3.49671797362531      1.79502337824826      0.94174338074515
  C           2.12270357954616      1.84104366178570     -1.20439375746536
  C           1.98180584479789      2.32955767879485      2.40285254055615
  C           0.59415292813020      1.96403122117847      2.86268234482518
  C          -0.39178149730665      2.84058397355369      2.90876579600882
  O           0.36795103023160      1.15513369674011      0.27016067212338
  C           2.88800102798782      2.48905998453629      3.62977211279378
  H           1.93534149325310      3.32956984105285      1.94461751681904
  H           0.44175375041435      0.94631385461940      3.18583062127319
  H          -0.27196969839756      3.86362537838054      2.59019100999885
  H          -1.36711057829011      2.56074418691454      3.26347125963529
  F           3.87979134338883     -0.23248412832773      2.35354053028829
  F           1.78313314040134     -0.68470447935982      2.22917644406079
  F           3.00777434119300     -0.73139406104287      0.46668961901089
  H           2.61398700761891      2.80817081685862     -1.11678961186036
  H           1.35412767834322      1.88365568379182     -1.97102011915184
  H           2.87488485163685      1.10545944869788     -1.48696641518039
  Br          2.29027525703370      4.07287900879517      4.62147510704207
  Br          2.83166482516219      0.99826992275354      4.87807197650215
  Br          4.75329696913957      2.82745682240204      3.13013683242717
