23
Coordinates from ORCA-job NEB_reactant E -51.674787951430
  C           1.93567069903907      0.25314898171688      0.27663989397284
  C           1.57709297574313      1.44472343921915     -0.22301156025356
  C           1.74286097983463     -0.36801724183904      1.61226138281100
  H           2.46218877850296     -0.41486910166321     -0.38546921218619
  C           1.91874828154286      1.77737022819571     -1.64821532152004
  C           1.73590304228264      2.86332548005448      3.86176437511630
  C           1.75975572408967      2.91845019446159      2.53994939103464
  C           0.57661571727508      2.60007985922781      1.67826906243599
  O           0.91964197206128      2.48577912105323      0.31172330599331
  C           2.86323358771672      3.17636911968768      4.76174481997798
  H           0.83696170215068      2.56510296263594      4.38782877187614
  H           2.65075100507817      3.21127456573451      2.00048139210666
  H          -0.11896379661102      3.44832750454578      1.69952926178213
  H           0.03727771661612      1.72204829612827      2.04317879177842
  F           2.40238395764275      0.24664229570683      2.62176909176325
  F           0.45449744553812     -0.43499711206945      2.02407091436611
  F           2.18676230732065     -1.63079971699850      1.60771111017544
  H           2.71376456953116      2.52085336004922     -1.66366691389449
  H           1.04844192949972      2.21503869264468     -2.13075278642886
  H           2.24029496526086      0.90035669353427     -2.19715392938013
  Br          2.37834614010707      4.73653854887094      5.88159885109991
  Br          3.19827856957921      1.65863599816243      5.96423265281021
  Br          4.52429173019846      3.60031783094080      3.86431665456294
