20
Coordinates from ORCA-job NEB E -33.453149596130
  C          -0.24268876002697      0.63102668932183     -0.48301491117678
  C           0.29212578148360      0.61400444580202      0.82076450021384
  O           0.52280403375420      0.10140639693122     -1.52100399459352
  H          -0.81626867936260      1.51619218430923     -0.76771467655090
  N          -0.23393361391930      1.44475697482116      1.77829671427183
  C          -1.50587688170629     -0.87969017719430     -0.36520980560370
  C          -1.13764304530002     -1.66799834530666      0.72768603432053
  C           0.26192754421569     -1.88163703927907      0.86037525968063
  O           0.92884091444199     -0.42800069959430      1.24887697027616
  Cl         -3.11222367798994     -0.21558755226965     -0.35757202380647
  H          -1.21972880131057     -1.19443723723916     -1.36249964696720
  H          -1.71427664730399     -1.56845659636613      1.63822777601437
  H           0.78793559281547     -2.11126860754853     -0.06165727343581
  H           0.59708486759207     -2.47399676702556      1.70228726528148
  C           1.56818252767362      0.95352240869267     -1.93403963858117
  H           2.05767649669519      0.45294170891917     -2.76715843492276
  H           2.29116706935033      1.11752748524807     -1.12731327349795
  H           1.17925473282135      1.92337333396979     -2.26740492638634
  H           0.09873326243873      1.32546206645009      2.71971938722776
  H          -0.60309271636256      2.34085932735811      1.51835469823599
