20
Coordinates from ORCA-job NEB_reactant E -33.481196679880
  C           1.06592019430659     -0.05120629160021     -0.04821644765164
  C           1.20101327358722     -0.85120033780008      1.01297323615459
  O           1.01964735569260     -0.53912799277952     -1.33111770091720
  H           0.94474055880263      1.01991692854618      0.07165618845664
  N           1.03115294307347     -0.40673172079861      2.33531258359367
  C          -0.84223541123874     -4.05008577241479     -0.85999951076187
  C          -0.59344371840161     -3.00159146144792     -0.09665115754850
  C           0.33750312252600     -3.04902407166254      1.07771975938424
  O           1.46091272150304     -2.19451825252463      0.89815565456739
  Cl         -1.89846545398823     -3.98506835989275     -2.21248901131611
  H          -0.42219532982998     -5.02979124997168     -0.69034317541215
  H          -1.02219358244873     -2.03627841787272     -0.31943718205137
  H           0.75638217945339     -4.05007071108542      1.20172455501300
  H          -0.20381132185134     -2.76021879532641      1.98981316737272
  C           1.51957196902527      0.33772294750364     -2.30804014923208
  H           1.31811780234039     -0.12843209621751     -3.27072477142604
  H           2.59928218357257      0.48965149151254     -2.19681153350350
  H           1.01812500445887      1.31235926707196     -2.26239270534862
  H           1.61929817753835     -0.91472349476094      2.98336746957216
  H           1.13427733187824      0.59191839152143      2.43930073105465
