22
Coordinates from ORCA-job NEB_product E -53.342621081190
  C           2.07577941652320      0.01277634099255     -1.94688383901286
  C           0.72112627091368     -0.57034108326864     -2.30894623135351
  C           1.94062163448338      0.92481604883127     -0.72718200179079
  H           2.79636774078438     -0.76969790522515     -1.69831892946161
  C           0.64073533731052     -2.10819485192303     -2.32321450855502
  C           2.56033011550316      0.83640470039438     -3.17700359091469
  C           3.91092155670052      1.44374184344414     -2.90926973817092
  C           4.14996251190829      2.74113322422162     -2.93462371565822
  O          -0.24364786060731      0.09224925144437     -2.53314774134401
  N           2.54322179609581     -0.04957337153119     -4.33044063324312
  H           1.82011343584459      1.62393959113567     -3.35620726065630
  H           4.70642677045801      0.73169194890690     -2.73023870580596
  H           3.36400007314766      3.45738917524944     -3.10800351930840
  H           5.13645615628894      3.13913071768975     -2.77249466255316
  F           3.14034225522453      1.21447377128619     -0.20263482551787
  F           1.34784148305636      2.08749707373356     -0.99497200962576
  F           1.23712929678226      0.34904134462357      0.25677718808040
  Cl          2.03554271690376     -2.87718771264833     -3.07462315158068
  Cl          0.58227483365505     -2.56614092757614     -0.59257143036560
  Cl         -0.83198460622463     -2.63625435983202     -3.13353632005166
  H           3.31358776179666     -0.70915013898415     -4.28889557100445
  H           2.63785130345117      0.48635531903523     -5.18446880210580
