20
Coordinates from ORCA-job NEB E -41.412420683500
  C           0.42920856927675      0.94047691659406     -0.32888446534813
  C          -0.85171617359970      1.13921461108286     -0.88858609763988
  C           1.61074903690706      0.86128235061405     -1.24089160529573
  H           0.64367687675163      1.58447462426616      0.51780741075161
  H          -1.04764759193052      0.79184370158361     -1.90655803524293
  C           0.14612746476974     -0.64544652658220      0.78655503081866
  C          -1.23358695141172     -0.65673120527013      1.08937390835684
  C          -1.86743603004924      0.54140499414850      1.41480434766861
  O          -1.84093506757279      1.37825375173936     -0.13969778423839
  C           0.67356959984643     -1.90420078782110      0.13830952768832
  H           0.82659734583224     -0.28981908654810      1.55159208031924
  H          -1.83306449490198     -1.39448864557587      0.57058293747245
  H          -1.33079434556094      1.26969163850362      2.01004484211875
  H          -2.93490661159557      0.54190241234715      1.57620464248277
  Cl          1.38774586739665     -0.24710776942526     -2.60113992290194
  Cl          1.91781068225183      2.50398843043405     -1.92345235755007
  Cl          3.08602799702736      0.40607099618510     -0.34609978541193
  F          -0.14820902470031     -2.32909074244294     -0.87410024244989
  H           0.69543394179246     -2.71188182617461      0.88125789188615
  H           1.67134890947059     -1.77983783765832     -0.28712232348451
