20
Coordinates from ORCA-job NEB_reactant E -41.461642155120
  C           1.91113130980883     -0.25035901741816      0.00993648119127
  C           0.96176637575539     -1.01961395166016      0.54317176918333
  C           2.18706081466447     -0.11970407080377     -1.43206239649478
  H           2.53889089592041      0.35104937231899      0.64915744864439
  H           0.31727952517434     -1.63503581968600     -0.07648704672191
  C           0.51877316051959     -4.17736056697217      3.41186813772435
  C           0.45020989177735     -3.40114846630165      2.34427627721266
  C          -0.16492170692182     -2.03343595692555      2.33575038168185
  O           0.74364511723003     -1.04906378505815      1.86437540551788
  C           1.12286052273811     -5.54409377799444      3.42679510877822
  H           0.11805890337969     -3.86367432877854      4.36572329087337
  H           0.86647418041564     -3.73281059340652      1.40254711698411
  H          -0.43321976715508     -1.72150626796196      3.34739646986862
  H          -1.06874021303712     -2.03727996462182      1.70873152096310
  Cl          1.18842605337664     -1.16652958218387     -2.44833045004854
  Cl          1.91263161145577      1.57605402920373     -1.96026427645541
  Cl          3.90472996623879     -0.50677824676761     -1.76683767634736
  F           1.57717406160486     -5.92152557307476      2.19095532440987
  H           0.38439144791038     -6.29427358513743      3.73717263858255
  H           1.98227784914372     -5.58150984677018      4.10822447445242
