22
Coordinates from ORCA-job NEB_reactant E -31.850170007310
  C           1.86453498110479      0.11634889965027      0.08715362722847
  C           1.73627679373409     -0.35514539092761      1.32691665111105
  C           1.52770326298268     -0.64667143523805     -1.15578264207861
  H           2.24875905803732      1.11642809504834     -0.04791738006629
  N           2.13447659130221      0.33630476001551      2.47443963589508
  C           3.15283356619349     -3.48286404975070      3.74268939014879
  C           3.09227159535305     -2.56529208445413      2.79988330785284
  C           2.15808501225194     -2.66383491696874      1.62804675655487
  O           1.21445938122497     -1.60567701572410      1.59990014070477
  I           4.44731146048517     -3.34749123645694      5.39745113030927
  H           2.56271835253927     -4.38370215075766      3.74074518509568
  H           3.69004723391341     -1.66589861920930      2.84087355157678
  H           1.56150030388600     -3.57833262066695      1.67913768779440
  H           2.74789927703449     -2.66724297410600      0.70025887320830
  C           2.76870248670578     -0.90874217030046     -2.01092222482120
  H           0.81192602208476     -0.06749470489019     -1.74658460939237
  H           1.05141657192983     -1.59083016852539     -0.88719194493207
  H           3.23364759268370      0.03091137192972     -2.30101091926723
  H           2.50085801384155     -1.45452035255071     -2.91281240705624
  H           3.50189830443632     -1.49333298008780     -1.45842408026868
  H           1.60489732650713      0.07466906109488      3.29463136112576
  H           2.19607681176805      1.33631068287602      2.35541890927661
