22
Coordinates from ORCA-job NEB_product E -31.885834032300
  C           2.45912842589436     -0.63967525991766      1.04733689379270
  C           1.07859291863294     -0.36195539879323      1.65651651531536
  C           2.29587638705842     -0.69026567072092     -0.47648543384148
  H           3.13752512126110      0.17823848943823      1.31144451296690
  N           1.08734937439572      0.53336878879993      2.67095646858412
  C           2.93035529106497     -1.92840841710595      1.73200860584385
  C           2.36145231502574     -3.17596594699316      1.16828232055273
  C           1.61228789826584     -4.00667588134535      1.87057369479539
  O           0.06991298765149     -0.91896595820724      1.29403492944871
  I           5.12706626050078     -2.08351170853333      1.74671974570193
  H           2.69707736823852     -1.86378460390416      2.79717369901705
  H           2.59812501636500     -3.38962870982243      0.13611024539146
  H           1.36563384645446     -3.81865157908667      2.90290995718065
  H           1.20071841266084     -4.90067614744769      1.43617821110837
  C           3.58936908000396     -0.89538724455511     -1.25303062694053
  H           1.85449068365138      0.26443042210743     -0.77696430067749
  H           1.57020129319863     -1.46637811711376     -0.72452470828295
  H           4.34176243528069     -0.16923099188746     -0.95130877666362
  H           3.39981922524232     -0.76630087364105     -2.31626523638107
  H           3.99668559243222     -1.89195091513100     -1.10765752669165
  H           0.21371166780764      0.76547928956277      3.11524609270098
  H           1.91245839891300      1.03279643429783      2.95094471707860
