24
Coordinates from ORCA-job NEB E -32.762100111110
  C          -0.42155585814997      1.08680058838545     -0.32394595725429
  C          -1.24754687012101      0.99410820033097      0.81734254281177
  C          -1.04234548541236      1.20278289118399     -1.59040018964954
  H           0.47692735672759      1.68683299143108     -0.22998668611369
  C          -0.69932600946850      1.46077200227608      2.14023547573198
  C           0.21309735836992     -0.82120695682008     -0.53446784428092
  C          -0.64474150192234     -1.56835569561784      0.28070675995641
  C          -2.02324499522159     -1.36981412812139      0.13845803401823
  O          -2.26951912538908      0.23381504960385      0.81358834822801
  C           1.69451868187179     -0.81434752238960     -0.24580833544781
  H          -0.02160379060777     -0.82937579912412     -1.59394636162257
  H          -0.28083152251534     -1.86463386583106      1.25830387136816
  H          -2.70290358361451     -1.91040628803121      0.78071159650958
  H          -2.40497609059746     -1.18358983369476     -0.85818027500884
  N          -1.54431768438380      1.31678113084542     -2.61465245923894
  H           0.08491707972840      0.77394133624104      2.46562026050012
  H          -1.49019150175329      1.45500555065433      2.88532316357489
  H          -0.27683976194438      2.45905484467273      2.06120486131175
  C           2.51706190453206     -0.15385109490704     -1.34587692994081
  H           2.01658450638297     -1.85505627390476     -0.14374881104118
  H           1.88791163744550     -0.32610996529323      0.71294923242033
  H           2.36407512370253     -0.66722497672403     -2.29237166563037
  H           3.57593772986713     -0.19474177173935     -1.10135255685809
  H           2.23891240247348      0.88881958657352     -1.47970607434421
