24
Coordinates from ORCA-job NEB_reactant E -32.809450665340
  C           1.97701411172417     -0.24559092138969      0.06925791780654
  C           1.53170865168550     -0.89557947312141      1.16200273420886
  C           2.18779226321036     -0.73522663587597     -1.22352940884497
  H           2.19047536083130      0.81074658828817      0.16306437203628
  C           1.33116482557128     -0.16873515104771      2.45978911685313
  C           3.59583508685886     -3.64442138360314     -0.94469171262787
  C           2.93818597854513     -3.44890139217218      0.18468819480578
  C           1.47398715386009     -3.12996397583372      0.27135036203976
  O           1.19574601120036     -2.18783158560127      1.29780142070699
  C           5.05284791888215     -3.95811747511465     -1.03601303942929
  H           3.08182501135117     -3.54659144429191     -1.89121745951622
  H           3.43637524718075     -3.52836922288620      1.14268629965386
  H           0.91431095347890     -4.02099418540161      0.58021984054527
  H           1.08660816840255     -2.78720975292287     -0.69295929212258
  N           2.35304470751662     -1.04074497094269     -2.32017717570150
  H           2.10732261680508     -0.46228115010707      3.16586271871084
  H           0.37225408275074     -0.45200257564465      2.88843783945458
  H           1.36586577202772      0.90698201935062      2.32177764896770
  C           5.78943023128359     -2.84716866498386     -1.78447788846908
  H           5.18296600460684     -4.89929923040931     -1.57724756050796
  H           5.47559348038760     -4.07777575947009     -0.03644665257211
  H           5.36217016792481     -2.71087511354881     -2.77457811665664
  H           6.84426102734054     -3.09050942315318     -1.88798380599678
  H           5.69871516657389     -1.90703912011678     -1.24551635334458
