18
Coordinates from ORCA-job NEB E -37.772853475230
  C           0.50260178524106      0.05330379416924     -0.96548453630119
  C           0.09485299394343      1.34453491477314     -0.50440222827811
  N           1.84785742937657     -0.37256384215152     -0.68331493159301
  H           0.22031955237720     -0.21278435381841     -1.98132948681645
  C          -0.79099506054468      2.05054504907810     -1.38570574914973
  C          -0.48310104294004     -1.20631070935836      0.22058841930406
  C          -1.01986299918655     -0.38209182638379      1.23622337841242
  C          -0.17448613967283      0.45589722195811      1.94323281570534
  O           0.26268014561932      1.72506656017907      0.68003846492834
  O          -1.36877339363696     -1.83724332065531     -0.58035929213768
  H           0.40845135492871     -1.77356224092121      0.48573892328600
  H          -2.06721594519614     -0.12949183091003      1.13565447579430
  H           0.84857494041072      0.15226182449466      2.12045712389625
  H          -0.59129994890020      1.13440497706510      2.67074538974641
  O           2.34285329879333     -0.10693962908834      0.38872387764983
  O           2.39543258674676     -0.99466011142074     -1.57160933912305
  N          -1.47409014916241      2.62905767361986     -2.10022082485430
  H          -0.95379940819728     -2.52942415062956     -1.10897648046944
