18
Coordinates from ORCA-job NEB_product E -37.805678155080
  C           1.34780739432031     -0.79456996971781      1.49717233964829
  C           2.66245907950427     -0.25696121569895      2.05711978414369
  N           1.60870558924734     -1.65856841001266      0.32346011665176
  H           0.70114458593647      0.02815317018638      1.17545918580535
  C           2.40572472386252      0.83958833006400      2.97780072739861
  C           0.63174727868438     -1.63202755779353      2.62724726160917
  C          -0.59400837948843     -2.28102669768815      2.03411192963707
  C          -1.80256701393741     -1.75755339642258      2.10460247458175
  O           3.74975592577420     -0.68081057630212      1.79983310059483
  O           1.50125752315155     -2.53239101474294      3.22504580185910
  H           0.33877799086706     -0.92455352961674      3.41277249609143
  H          -0.42005820905948     -3.23003067786570      1.54488726026488
  H          -1.98852840633741     -0.81872110751281      2.59998804176211
  H          -2.65565072519891     -2.24937125180380      1.67183325665280
  O           1.30235804696764     -1.21523172694695     -0.75227656875401
  O           2.09707523318322     -2.74186586285960      0.53511149537408
  N           2.18026598610965      1.71680949150455      3.67550348903837
  H           1.82353337641305     -3.16256799677058      2.55842780764073
