26
Coordinates from ORCA-job NEB_product E -50.578824281450
  C           1.61063198273954     -1.35317331759963      1.66522691126600
  C           3.06665714859471     -1.54035242147633      2.09243278559599
  C           1.33248434286507     -1.51135422204841      0.17670976807626
  H           1.44309947907244     -0.27798238398332      1.83531706219801
  C           3.94910429928211     -2.65497278063012      1.46438265943931
  C           0.67830871416674     -2.06057166430271      2.71752106274330
  C          -0.72068455766104     -2.27622696876668      2.21785391746563
  C          -1.77163977128880     -1.66916667043433      2.73782449990171
  O           3.54014646217822     -0.83626261259796      2.93586077100121
  C           1.22226602831004     -3.33989601387452      3.39092904798236
  H           0.62175073725529     -1.33070268347441      3.53403283029174
  H          -0.85725102548893     -3.00820328978273      1.43566764758789
  H          -1.67814787296781     -0.94357640222555      3.52917945324461
  H          -2.76890789607120     -1.86857432274925      2.38745989323434
  Br         -0.28587634244315     -0.51771179798435     -0.31453386548575
  Br          2.81822953655558     -0.65021376402031     -0.81935034953585
  Br          1.11537892420341     -3.29750037332380     -0.54759374510943
  F           5.09542489871191     -2.09724227761813      1.02600356816559
  F           4.28650970738952     -3.53255716922275      2.43608093128454
  H           3.50805297625426     -3.22513176172836      0.63614110823583
  C           1.23327199109762     -4.63755534452166      2.59308498331438
  H           0.57973167935294     -3.49508209523119      4.26167270355830
  H           2.22629299559907     -3.14347381446248      3.77207929088028
  H           0.25698042595708     -4.85472710730352      2.16962610551445
  H           1.49491586225760     -5.45206616118178      3.26380596262716
  H           1.96846927407781     -4.63042257945575      1.79588499652215
