21
Coordinates from ORCA-job NEB_product E -37.664689139280
  C           2.73596889855080     -1.35626829679821      0.19323452098080
  C           1.63152953455293     -0.90072169335210      1.14458326789331
  C           2.46164591841196     -0.83760401019715     -1.21479753306012
  H           3.69377096949427     -0.95555233093863      0.54825071571984
  O           1.98489886101721     -0.87774590218919      2.44367526812686
  C           2.79635653022413     -2.90786632601270      0.28952532142077
  C           1.80960188391467     -3.57448934002619     -0.62700043454265
  C           0.64256800560223     -4.03682295530546     -0.22292408799411
  O           0.52223821185808     -0.61796768970265      0.80543772313494
  C           4.21232492279833     -3.41422029567632      0.01069398311714
  H           2.57874510396515     -3.20506872017269      1.32364416182746
  H           2.10900136112434     -3.64092817943087     -1.66309971131799
  H           0.32518865858500     -3.96595037629579      0.80423158014155
  H          -0.05191635735544     -4.49152466531949     -0.90703382477614
  H           1.45945065161016     -1.12067467384737     -1.52485129670317
  H           3.18683216941170     -1.22698346445279     -1.92283428541791
  H           2.52248489382526      0.24807228785456     -1.21715511862909
  H           2.91777086036950     -1.09022797651686      2.58625942684633
  F           4.68943407365262     -2.99920554973817     -1.18280101941745
  F           5.07239400785061     -2.92808798443356      0.94688812042782
  H           4.28011084053649     -4.51266185744835      0.03587322222182
