20
Coordinates from ORCA-job NEB E -38.321025513160
  C           0.70018394058731      0.93252792876125      0.10302392279177
  C          -0.61867460427732      1.12953697926680      0.54931104528508
  C           1.09112311131915      1.32290216205773     -1.19513513101336
  H           1.49500806573448      1.00504967117797      0.83872544798138
  C          -0.83117440644710      1.11939953973490      2.06892997948683
  C           0.63736389582480     -1.11675912112348     -0.30461765289565
  C          -0.45340335523951     -1.07571589945354     -1.20206104350079
  C          -1.73034055346161     -0.84408739913158     -0.76069199852641
  O          -1.62517034616003      1.01399203243723     -0.18714482856423
  N           1.87834799666387     -1.46092496023251     -0.74718037723427
  H           0.44099788867885     -1.40229633199706      0.72276579026120
  H          -0.22331563976060     -0.94385426366475     -2.25020321503958
  H          -2.02698954804440     -1.14854126268405      0.23103852103481
  H          -2.52996410744536     -0.72909918763362     -1.47200141629724
  N           1.47453820582154      1.63442927988429     -2.22983436525099
  F          -0.81933300081790     -0.16641972261568      2.53130985602547
  F           0.16979064964989      1.75168269600958      2.72410423454343
  H          -1.78930995842429      1.57289849261439      2.35588847203261
  H           2.11853672306006     -1.17242387690907     -1.68485557534926
  H           2.64178504273817     -1.42229675649881     -0.09137166577081
