20
Coordinates from ORCA-job NEB_reactant E -38.349299785240
  C           2.22748830300187     -0.51038908405819      0.01429837078761
  C           1.55452515809497     -1.36954772961397      0.80232306779757
  C           2.39665390073937     -0.58252875228605     -1.37614456066478
  H           2.70008805728266      0.35047463050783      0.46587957858663
  C           1.49851869685336     -1.11072625693463      2.29876234396777
  C           3.21757341788044     -3.88746725885406     -0.37083777643346
  C           2.29805812109029     -3.46089107511617     -1.23548241975337
  C           0.93041573877515     -3.00035241855604     -0.82320972441065
  O           0.88919187650011     -2.48179861512022      0.50056032099985
  N           4.51582814060171     -4.20365293710559     -0.69603838869776
  H           3.00329758861236     -3.93329600955556      0.68922429068635
  H           2.51193283664900     -3.40294138324614     -2.29107367019817
  H           0.21942842893069     -3.83452404623820     -0.79295422162233
  H           0.55528547774856     -2.25094686707548     -1.52964216813437
  N           2.57865921362422     -0.55735621837547     -2.50996882083353
  F           0.22188967650072     -1.07586949367694      2.73997837254084
  F           2.10979155998742     -2.11670658357391      2.97028752682965
  H           1.98510749941079     -0.16731430888099      2.58918391224113
  H           4.69621897824108     -4.33076834461276     -1.68019632296862
  H           4.97974732947526     -4.86829724762747     -0.09914971072036
