19
Coordinates from ORCA-job NEB_product E -37.539190124320
  C           1.70217980291696     -1.46253380526126     -0.48625078183279
  C           0.65966152478668     -0.79143922439503      0.42941035430699
  C           1.87202200747763     -0.68817051838406     -1.78735642946892
  H           2.67486822190343     -1.42263925588091      0.01506705988638
  N           0.79010234183339     -1.16657518059050      1.72020696258358
  C           1.30338996921475     -2.94245993853701     -0.70604379527461
  C          -0.17893467201752     -3.16146255590362     -0.64479190018346
  C          -0.76858518143008     -3.92270504286750      0.25731963250707
  O          -0.18035968573846     -0.01583449590858      0.05379971141499
  H           1.67774063566729     -3.26508332081182     -1.67990489942371
  H           1.78752435267865     -3.55471767043593      0.05708748817998
  H          -0.76344186981659     -2.65170321532801     -1.39537473136303
  H          -0.20987929516169     -4.44611596775766      1.01754161970704
  H          -1.83458066671712     -4.06699138091742      0.26907089597310
  Cl          0.42835890527515     -0.69156674808881     -2.79816214509106
  Cl          2.31740783947460      0.99857897271509     -1.42487729618232
  Cl          3.21311850561163     -1.40117015934223     -2.73110990450251
  H           0.10486943982382     -0.83804278224572      2.38047261067151
  H           1.43603782421750     -1.87636771005902      2.01369554809178
