27
Coordinates from ORCA-job R E -33.531962954160
  C          -1.35639737864860     -0.20090869396597     -2.78717851465400
  C           0.42848855066623     -2.64294503650559     -3.03077105127214
  C          -0.77972424307487     -2.60849387823760     -2.47222656973888
  C          -1.60653815715159     -1.43286389256822     -2.31774877805511
  C           0.62629640328652      2.48357377719581      0.25940511933355
  C           0.14112012185053      1.27648164713504      0.03843263869806
  H          -1.20154864783467     -3.52396069613395     -2.07785120777383
  H          -2.52631493589139     -1.56337884381335     -1.75961614445433
  C          -2.27984243334468      0.91304198195639     -2.52063137142498
  H           0.98817722421681     -3.55936960144400     -3.10326942026800
  H          -0.47254729376837      0.02745381418035     -3.36342251261380
  H           0.90437335188713     -1.76459930780307     -3.43284126692601
  H          -0.00513017300919      3.35524033617112      0.29733025835561
  H          -0.92196980004048      1.13417111925342     -0.10819136739660
  H           1.68003072624404      2.65237894312055      0.41404135967311
  C           0.96027632618561      0.02674493051480     -0.02834906349352
  O          -3.32186987470804      0.77474573305748     -1.91637886636366
  C          -1.81425979756641      2.24750730129215     -3.04950234665642
  H          -0.86390611097686      2.50625981363211     -2.58492758071479
  H          -2.54880890555547      3.01686319866482     -2.82802075780563
  H          -1.66336144715481      2.18452653558348     -4.12537776417471
  C           0.37266036436599     -1.06889863472893      0.85731769497092
  H           1.98891122359863      0.23942509387011      0.26970171304509
  H           0.97472026362744     -0.33269311271496     -1.06189886311429
  H           0.35945720322779     -0.74985478998892      1.89699119055440
  H           0.96285505604675     -1.97921296422281      0.78013454714997
  H          -0.64725761647802     -1.29239477350026      0.55224892512001
