16
Coordinates from ORCA-job NEB E -29.988699011390
  C           0.57285747845817     -1.20477835179141      0.27213481166580
  C          -0.79366916247706     -0.86975479624815      0.25876181081088
  F           1.20029287397741     -1.17953080139343      1.46960470089361
  H           0.93687876782639     -2.03688774381007     -0.32509577104200
  N          -1.54759705281280     -1.21252215026871     -0.85463610691637
  C           1.26051042037551      0.44027319745004     -0.51602824282547
  C           0.81463269672659      1.41023766651212      0.37684748682917
  C          -0.60082685296684      1.54672533293021      0.49807257835180
  O          -1.20650752887285      0.12282141633560      0.98585661102179
  Br          3.14561721118385      0.16209433499776     -0.69570514188163
  H           0.78004926628006      0.34065667955337     -1.48388567793617
  H           1.43557801387185      1.65999020005604      1.22336146689052
  H          -1.14352819334748      1.67491457672699     -0.43663844235031
  H          -0.94756010655228      2.21496305393179      1.27644940759353
  H          -2.51884105679542     -0.94757911288545     -0.79264775176451
  H          -1.38788677487510     -2.12162350209670     -1.25645173934064
