17
Coordinates from ORCA-job NEB_product E -37.919878064340
  C           2.18364141782046      2.46968486776863      0.13892663255418
  C           0.90692857445377      2.84800670295036     -0.61228086922313
  F           2.23266038130296      1.08800901207236      0.17499673645935
  H           3.05783323387052      2.78967070157568     -0.44644686499492
  C           0.72204899777327      2.02628371094551     -1.90244336459545
  C           2.22578786067265      3.01408216891274      1.56003423971233
  C           3.35111842093068      2.43413173126058      2.34060316631652
  C           3.20244296042703      1.90273821455491      3.54030627198327
  O           0.10905838918576      3.64929178867074     -0.23494888449833
  I           2.46562344007173      5.17355187155442      1.43048069202219
  H           1.26829395625334      2.85096519877594      2.05579737263092
  H           4.32092918334695      2.47581710412062      1.86334015826397
  H           2.24336490616361      1.85960478423888      4.02981318422006
  H           4.03596815124978      1.48749073488034      4.07821937338167
  F          -0.17335383066337      2.60616854474808     -2.71753636618269
  F           1.88758762108121      1.93653712891856     -2.58089820367876
  H           0.37916633605964      1.00356573405165     -1.66686327437117
