19
Coordinates from ORCA-job P E -35.378555059220
  C          -1.36518365923071      0.46003901238140     -2.30094953155826
  C          -0.16426110847999     -1.68843748897263     -1.08714752014196
  C          -1.53284842031681     -1.85548292802699     -1.67065680986351
  C          -2.10993168765448     -0.83271148647828     -2.27974095871326
  C          -0.84681146392120      0.78265297529638     -0.89806470351763
  C          -0.04885162859319     -0.38145350064198     -0.27520299711703
  H          -2.00097079950169     -2.82343189502314     -1.60391268997769
  H          -3.08390185941775     -0.88957379454851     -2.73577651139902
  Br         -2.50278090688375      1.94460468042348     -2.91008279302222
  H           0.08620486830772     -2.54018456797436     -0.45450683824589
  H          -0.54047212394507      0.42266215816116     -3.01990467236340
  H           0.55620446773674     -1.66289453969989     -1.91350524240189
  H          -1.70806119057232      1.00109329969151     -0.26305886899877
  H          -0.44967961086555     -0.57829833900842      0.72689986089262
  H          -0.24449461834831      1.69311924328967     -0.94393591252363
  C           1.41104036241397      0.00333067764111     -0.07649372529388
  Br          1.56766628571829      1.52800365522741      1.15241856528134
  Br          2.44021937618202     -1.46463577912617      0.70996726261435
  Br          2.27085371737208      0.49986861738824     -1.76031591365023
