19
Coordinates from ORCA-job TS E -35.272362810020
  C          -0.98735507603314      0.61488977412377     -1.51853826083357
  C           0.27420779363165     -1.64397190481740     -0.28679815946736
  C          -1.05336661112633     -1.60412364007491     -0.55311135281470
  C          -1.67690473199582     -0.51484473364842     -1.19692167002634
  C          -0.41664979376544      1.21931892086566      0.54770530415445
  C           0.38304296028516      0.27734587070651      1.12160632758951
  H          -1.70293010429503     -2.35223396024095     -0.12084923749546
  H          -2.75681114867392     -0.50153858983622     -1.24105450877022
  Br         -1.90103756975100      2.11788995978469     -2.22818221713550
  H           0.67898015212745     -2.45158186999914      0.29992122655363
  H           0.05978689042559      0.62685339260168     -1.77015720483085
  H           0.98350808479296     -1.08999631347995     -0.87458475909234
  H          -1.45167580560867      1.27963709198377      0.83197635075741
  H          -0.01213234563347     -0.41398192465738      1.85058984196722
  H           0.01061388628366      2.11081810153070      0.11714876836675
  C           1.85120888000514      0.47010450038995      1.18815707123088
  Br          2.26242189888183      1.86960687461902      2.57465434071877
  Br          2.82224805589100     -1.12615726430031      1.74027873536886
  Br          2.63284458455838      1.11196571444895     -0.48184059624113
