21
Coordinates from ORCA-job NEB E -54.937535629890
  C          -0.09026686585396     -0.90532265200578     -0.49819431064331
  C          -1.16389716168773     -0.07031837982867     -0.87286529205428
  C          -0.30930880463732     -1.93529011919324      0.58654031886752
  H           0.43830002572787     -1.34393005272569     -1.34750155957148
  N          -1.13936158588918      0.43231207020626     -2.23724685043416
  C           1.07910267737611      0.44668163024140      0.17223416463884
  C           0.29184317929725      1.19298686869605      1.05368215404228
  C          -0.93708974680314      1.79213567959576      0.58641459301265
  O          -1.79233787212721      0.67952222916531     -0.01135024371533
  N           2.28098103836952     -0.16761755799389      0.76419432013764
  H           1.33146857373912      0.82186473977319     -0.81686517603312
  H           0.46560305091547      1.06561726112056      2.11280586754542
  H          -0.82998906541542      2.48978283496014     -0.24940263330098
  H          -1.55613246749936      2.21726759561838      1.37114020604527
  Cl         -0.90249434044903     -1.26874360216099      2.10694832057599
  Cl         -1.55759437944933     -3.05985687776926     -0.05431471635130
  Cl          1.16561390391075     -2.89152876807476      0.88420312268564
  O          -1.69662133447288      1.49120157071289     -2.42936516694696
  O          -0.54166744381789     -0.22285900667199     -3.06662346058684
  O           2.31571831255089     -0.29403824854180      1.95984711033907
  O           3.14813030621547     -0.46986721512387     -0.01428076825255
