21
Coordinates from ORCA-job NEB_product E -54.964652957820
  C           2.81174124895244      1.05533637453543      0.27128305053681
  C           1.69592692590750      1.65515941076744     -0.54873103374585
  C           2.20988939729649      0.02089025158168      1.23958338580869
  H           3.48938765198660      0.51308654679673     -0.41120478907062
  N           1.41047686723771      0.85683664759522     -1.84701119337014
  C           3.63403316174400      2.16808223138862      0.95565823407838
  C           3.08623723692538      2.72966817122012      2.23217902741688
  C           2.49834263166461      3.90921995086420      2.30159694291279
  O           1.05330940385818      2.62427411238089     -0.34433226050404
  N           5.04212470519077      1.66215104445668      1.18272870698573
  H           3.74807339850397      2.98003191806137      0.22513806426746
  H           3.23142941767792      2.12335141103967      3.11297195353758
  H           2.35317822818846      4.53126516449145      1.43414914742015
  H           2.11830274198479      4.28892452070775      3.23270365646194
  Cl          0.87738939550102      0.71247190658321      2.19738219894912
  Cl          1.55253433049665     -1.35129971641465      0.29511289957404
  Cl          3.46516692477396     -0.60052550379430      2.33540220850476
  O           0.29352820959525      0.94918774947115     -2.26693650533284
  O           2.33768934260923      0.25145092200864     -2.31894065832214
  O           5.60510094433733      2.05943565309837      2.16267190043178
  O           5.50163783556773      0.94400123316032      0.33409506345950
