17
Coordinates from ORCA-job NEB E -38.143172933810
  C          -0.14845458208788     -1.24225677399694     -0.65871484708203
  C           0.51095409860512     -2.28644627116965      0.07924812988497
  Br         -2.74316752795542     -1.36063540736141      0.95480632248078
  H          -0.64029987145075     -1.52773113770679     -1.57682204342876
  F           0.35092325574884     -3.48810862225969     -0.54704643281966
  C          -0.19962046433898      0.12260919541062     -0.19286208313624
  C           0.92200806709284      0.60419619102015      0.68594475829007
  C           0.78607976895214      1.59860556575871      1.54860833028853
  O           1.13996761753811     -2.23207871844355      1.08843146114996
  C          -0.52950959152232      1.11440538026956     -1.32930880605494
  H          -1.13245731796034      0.14909623143049      0.46952629191886
  H           1.86868844476708      0.10144169627734      0.55837651804697
  H          -0.15492756057278      2.09487000189935      1.71952238760208
  H           1.62821729760171      1.96030736489406      2.11184432650033
  F          -0.85621071631100      2.32286100811832     -0.83275180246014
  F           0.55604637186916      1.29832494423507     -2.11085182786231
  H          -1.35823728997553      0.77053935162435     -1.96795068331847
