17
Coordinates from ORCA-job NEB_reactant E -38.202706817760
  C           1.05650085865625      0.49547662558961     -0.39795390843627
  C           2.10701718751267      1.30073652620712     -0.28557489417493
  Br         -0.52081075406312      0.85585076215642      0.55473592207051
  H           1.06007098996250     -0.38499089869181     -1.01184644280788
  F           3.21992686255261      1.02205032055038     -0.99628908545157
  C           2.27723135684450      4.08537674069377     -1.77375729852056
  C           3.27835633630965      4.03774905803699     -0.91184530116325
  C           3.27918372869101      3.24612633576937      0.35955344180948
  O           2.17114669267860      2.37244581021241      0.49985274280914
  C           2.31801042129309      4.88245217783950     -3.04165707473348
  H           1.34012365578926      3.57142753778849     -1.61620761300378
  H           4.19103151835075      4.58643750393237     -1.09574710671293
  H           3.20436777932444      3.92250659457216      1.21657992667708
  H           4.22043878113606      2.68685216055743      0.43983400174257
  F           1.29365681390146      5.77362135729971     -3.07751430619624
  F           3.45584014296600      5.60583831541362     -3.15738744292783
  H           2.23050762809424      4.25004307207246     -3.94247556098005
