35
Coordinates from ORCA-job P E -43.369341921310
  C          -1.78146170729962      0.15004170541024     -1.89260094438922
  C          -0.38559337560767     -1.86839509838050     -0.59599098553825
  C          -1.86065688061120     -2.01961483465950     -0.79975649306856
  C          -2.52663485428631     -1.08360263956009     -1.45553308940456
  C          -0.98918210529415      0.63606458313588     -0.66572668417585
  C           0.02182612710393     -0.42047421727907     -0.20019669073328
  H          -2.32940731609108     -2.92172488652561     -0.43499081749970
  H          -3.58544800663761     -1.15745213381661     -1.65020196094155
  N          -2.58473448842643      1.20956501259832     -2.47597349276478
  H          -0.02697174209732     -2.57202492834494      0.15615456575055
  H          -1.02774885342585     -0.12456689143000     -2.63735224997361
  H           0.10970637410349     -2.11558981169274     -1.54258999882234
  H          -1.67864314871335      0.84638426692976      0.15186699263395
  H           0.10895927583048     -0.37390044526546      0.88860401371552
  H          -0.46348064042306      1.55414847081604     -0.92952670798439
  C           1.39547359246266     -0.18486088430890     -0.80942514321283
  C          -3.20609170862308      0.92755913042254     -3.77530319030785
  C          -3.19770267755205      2.22331378663757     -4.59504160514280
  C          -2.51039913547463     -0.15978131369189     -4.59214139398207
  C          -3.53113321533607      1.79345331953474     -1.54687457385311
  H          -4.25528290507142      0.60966422104315     -3.62805527373288
  H          -2.17039828163604      2.53437607509410     -4.76300095096466
  H          -3.71463955206609      3.02606653813730     -4.07738137784804
  H          -3.68307824262947      2.06669598308098     -5.55533643238656
  H          -1.47640051472924      0.11047880743097     -4.79067164127545
  H          -3.02430545479938     -0.26015284176291     -5.54599823028217
  H          -2.53919715942718     -1.12414424945084     -4.09108068430320
  H          -2.99502221019468      2.35967537055986     -0.78670054317295
  H          -4.16615278161948      1.04668320962061     -1.04627354832147
  H          -4.18127913155923      2.48634501953731     -2.07519044082444
  O           1.55713849444105      0.38077996601313     -1.86007017109651
  C           2.54264198046703     -0.74237055927216     -0.00302067836698
  H           2.67152490753517     -0.13097861207892      0.88866457241395
  H           3.46053752822105     -0.71649760243345     -0.58435008531544
  H           2.33082780946688     -1.76039351604893      0.31307593517159
