19
Coordinates from ORCA-job NEB_reactant E -39.391533078530
  C           2.22050394101475     -0.13294823153665     -0.24064663700353
  C           1.65042846318611     -0.40932104512658     -1.41193238447408
  I           2.15603848913104      1.69276391793864      0.77384453355030
  H           2.76237565058681     -0.89079502598710      0.29961551231795
  C           1.78581467370049     -1.81861549094145     -1.94741177842404
  C           3.43201929366593      0.94683096575179     -4.06823641220639
  C           2.95581531928423      1.55536188985963     -2.97661010467702
  C           1.49542494787184      1.63928182303493     -2.69732591278693
  O           0.94912423010246      0.36785574273011     -2.24807323939024
  N           4.75072693557255      0.85322035450083     -4.40916227132581
  H           2.74785742469150      0.54120539217666     -4.80340575981946
  H           3.63176611476252      1.95530486125828     -2.23508973724324
  H           0.91443827451491      1.82683708977289     -3.60322255124244
  H           1.26774731498905      2.41135458165634     -1.95949293579123
  Br          1.31005157811653     -3.17725872774988     -0.63723586759713
  Br          0.69016844852028     -2.05828532465764     -3.51262041810554
  Br          3.65773855042610     -2.13446577168014     -2.48080072016970
  H           5.42046702697998      1.05234878295115     -3.68314638778202
  H           5.01669332288292      0.11872421604819     -5.04224692782946
