18
Coordinates from ORCA-job P E -26.507402635160
  C          -1.28615137480917      0.63616243206545     -2.24153488616485
  C          -0.42767786970434     -1.66271128463281     -0.56671424611454
  C          -1.23195409422212     -1.80475940130628     -1.81929146864334
  C          -1.62347180556432     -0.79438202972709     -2.57473132262667
  C          -0.96706227273188      0.78575762379969     -0.74724232847370
  C           0.09840407494996     -0.24166921273226     -0.35027003447778
  H          -1.48902733162474     -2.81803755699117     -2.09401630918352
  H          -2.19148055885138     -0.95256875946922     -3.47987534929820
  C          -2.37703513475369      1.50859227137721     -2.60406459644847
  H          -1.03856200987477     -1.96139807151436      0.28984488569294
  H          -0.40723138342306      0.93434759125630     -2.83241734826009
  H           0.43022515960700     -2.33728992158411     -0.61242257400143
  H          -1.86870414763369      0.60805008682557     -0.15847358951184
  H           0.34012213255717     -0.10808647567413      0.71821195232346
  H          -0.61596644123198      1.80019201935818     -0.53858736526397
  O           1.27503181245585     -0.09815193027202     -1.11778924944085
  N          -3.25292336234368      2.19322089712077     -2.87110131956088
  H           1.62229460719883      0.79277172210029     -0.99995485054625
