18
Coordinates from ORCA-job R E -26.426304772190
  C          -0.92873437829813     -0.11267622274595     -2.82963472002605
  C          -0.35749442562556     -2.87760225504560     -1.80041710917925
  C          -1.55657613510275     -2.30869759334235     -1.88341720292940
  C          -1.78493747379020     -0.90936601645637     -2.17185976968846
  C          -1.20676372431794      1.42435123494025      0.51628470057617
  C          -0.05118005398938      0.83723568793085      0.25896578158768
  H          -2.44505173527406     -2.89496727460238     -1.68800355973426
  H          -2.72783368117988     -0.49587542264137     -1.83624247147339
  C          -1.18951529581248      1.25028855708137     -3.02772190073192
  H          -0.24003667663623     -3.92276627796683     -1.57122186430614
  H           0.01465244039948     -0.46991680706550     -3.21685480722398
  H           0.55213760861228     -2.31648143092080     -1.93159426988959
  H          -1.85602769203607      1.05996833925229      1.28879188824073
  H           0.30270142840775     -0.03288968656730      0.79436561737130
  H          -1.53282916848785      2.29138392897356     -0.03447711675011
  O           0.83746118759657      1.21712045942336     -0.68862415432831
  N          -1.38517355597779      2.37524399174010     -3.15562776846549
  H           0.50422133151223      2.00274678801267     -1.14484127304952
