22
Coordinates from ORCA-job NEB E -51.912106290080
  C           0.63479261936859     -0.67437271130518     -0.51099800829391
  C          -0.37099725303586     -0.44065699287836     -1.48992406940823
  C           0.48293253411127     -1.93750759578134      0.29510249270952
  H           1.66175239140652     -0.58344737518343     -0.85508571495557
  N          -0.03720511517393      0.21374779381118     -2.64376677599733
  C           0.26576664289177      0.84753539744938      0.63406058902152
  C          -1.09294935675670      0.72150507528468      0.95844223088309
  C          -2.01422585664576      0.73610050132144     -0.12451970916956
  O          -1.61467257410217     -0.47897768603882     -1.15234699697375
  C           1.25882473515030      0.98747302331388      1.75054517649258
  H           0.50279497624048      1.57394579892329     -0.14608976537166
  H          -1.37608409191757      0.20491690990256      1.86221552756050
  H          -1.93222095027342      1.57425294448847     -0.81307756673388
  H          -3.03963699888269      0.49411595665445      0.12234570308006
  F           1.52984877168971     -2.13482938469471      1.10965129698452
  F          -0.61509024569888     -2.02294159837468      1.04278629950264
  F           0.46209209613617     -3.01035270940326     -0.52686219800988
  H          -0.78195108226582      0.35920398913451     -3.30676208391484
  H           0.88696370498287      0.10045605122901     -3.02407624395045
  Br          1.14321515060372      2.86655801052577      2.35947454960378
  Br          0.94475535036898     -0.12671228611543      3.30279839377829
  Br          3.10129455180241      0.72998688773659      1.15608687316256
