22
Coordinates from ORCA-job NEB_reactant E -51.946266962190
  C           2.04624901727371      0.29040580697033      0.44087039017370
  C           1.67277438137983      1.36862478153276     -0.28167898636442
  C           1.44023323378838     -0.25507377232015      1.66868444590339
  H           2.85562058457420     -0.31161167764414      0.06569290077016
  N           2.30933407448648      1.67813554036844     -1.45143371511465
  C           1.92175296995241      3.30186688842438      3.23546131371613
  C           1.70662291858085      3.28975899007475      1.93012366235825
  C           0.46767608147227      2.74061070265313      1.29593639271632
  O           0.71023329795511      2.28616403726589     -0.02492660386439
  C           3.11708837459364      3.84367606883426      3.91172887046353
  H           1.19267483832786      2.88908274999886      3.92174479730679
  H           2.43072532296455      3.68916944683243      1.23155361103559
  H          -0.25966772271765      3.54963218656949      1.15837168699355
  H           0.00079122484232      1.97466297823507      1.92027950396616
  F           1.74291197685584      0.41981875606659      2.81244025462063
  F           0.08737838704044     -0.29711346055512      1.65173456660187
  F           1.84681079337078     -1.51217892176344      1.88407181093746
  H           1.85376490399841      2.37637864725545     -2.01638405353388
  H           2.78202914836812      0.94131468987151     -1.94516218911066
  Br          2.57278993678500      5.32373439297331      5.10153116026386
  Br          3.94120320761732      2.44577818431797      5.02552821964090
  Br          4.48180304849014      4.52906298403822      2.72003196051971
