22
Coordinates from ORCA-job NEB_product E -51.964018562870
  C           2.53375705196011      1.68905464544995      0.96626755390893
  C           1.55553590529315      1.67075730710077     -0.24359940986415
  C           2.77303414954240      0.23948996039899      1.38751223995977
  H           3.50939071159841      2.04499449119535      0.61304047631385
  N           2.17269225761126      1.48224880921545     -1.42456518035928
  C           1.99117416407931      2.67386169953147      2.02324142365582
  C           0.60853601668668      2.34234870520669      2.52539734920995
  C          -0.34650204919487      3.24780743330578      2.62846809450782
  O           0.37144175927970      1.84364122832365     -0.12584076980669
  C           2.90303458915493      2.91492647218074      3.23289071308904
  H           1.93555455778277      3.63786324304473      1.49588378498641
  H           0.43761644686592      1.32578180344168      2.84248886450309
  H          -0.21265269027376      4.26935758695567      2.31258804797137
  H          -1.31384494800452      2.99043007775406      3.02021685437322
  F           3.83132571328492      0.11078595124484      2.19859959046575
  F           1.74500986587632     -0.35798281850198      1.98168486725183
  F           3.07035078903493     -0.50497036045918      0.30209980263701
  H           1.58893978186912      1.38447933713861     -2.24067036558733
  H           3.13580554385980      1.20524743476947     -1.50424464727743
  Br          2.35763200219318      4.58700840156100      4.09401267095794
  Br          2.79931378972276      1.53482943197428      4.60217624617407
  Br          4.77965459177745      3.15713915916800      2.72265179292902
