19
Coordinates from ORCA-job NEB_reactant E -40.848102244040
  C           1.46279892013894      0.27226273909678      0.10746370372269
  C           1.45564556683528      1.42152000591255     -0.55847647783926
  F           2.04973193453033      0.08352235960613      1.31081207108416
  H           0.99212830130845     -0.62161418511233     -0.26440191494861
  C           0.77008090877401      1.52674931553808     -1.89921183109524
  C           3.03108361415207      5.11346783198327      0.28737854641620
  C           3.19842610674847      4.12997940595683      1.16342208587783
  C           2.68924281097521      2.74527071355335      0.99773484293306
  O           1.99721539750726      2.62657529750171     -0.23079826946448
  N           3.56050686502233      6.42158645868428      0.53421470775598
  H           2.50402732199217      5.01908735768503     -0.64816488596770
  H           3.74452348501190      4.32325322611114      2.07833542362387
  H           2.02778571501293      2.50530106298089      1.84258088934681
  H           3.53775838221618      2.04707654659491      1.03643213360193
  F           0.20876286540574      0.34296260976625     -2.27644622315991
  H           1.49362610857164      1.81074612695965     -2.67188222043022
  H          -0.03086972587914      2.27362738125817     -1.85621901588440
  O           4.16768177295488      6.61258319058049      1.56554708954532
  O           3.35914364872136      7.25624255534281     -0.32092065511804
