19
Coordinates from ORCA-job NEB_product E -40.849220553130
  C           2.44683710174191      2.45289223627961     -0.63819910088996
  C           1.27424141153283      2.68840969632537     -1.59880328074708
  F           2.42630144450704      1.16668879797208     -0.15563311647468
  H           3.38801544997790      2.57009902587466     -1.19858208703132
  C           0.74788745106674      1.41661548358933     -2.22570901799497
  C           2.42078363144349      3.46119596294437      0.51716821366550
  C           3.46158387411692      3.14227281394119      1.55332762055761
  C           3.19478259388238      3.04269978041620      2.84133628900652
  O           0.85395512825498      3.78933509100496     -1.80555665702133
  N           2.76158122059611      4.81914956549678     -0.02691957219014
  H           1.42709761263236      3.53447977834203      0.96814437569804
  H           4.46287536049775      3.01028797698467      1.16751046103921
  H           2.19963855167052      3.17745860579704      3.23090903980270
  H           3.96515307331347      2.81620770382269      3.55670727543210
  F          -0.23478594030063      1.67501023941268     -3.12892644673193
  H           0.32988440802405      0.76720025739655     -1.44601093061514
  H           1.55587760335920      0.88600461341738     -2.74359034947498
  O           3.63524383020000      4.86681211482773     -0.85401181916189
  O           2.18134619348297      5.74868025615471      0.45753910313174
