23
Coordinates from ORCA-job NEB_product E -55.892191522590
  C           2.62021144415905     -0.72076731482393     -1.63861916553503
  C           1.28714379821807     -1.44794141617433     -1.92728870887635
  C           2.28830299711382      0.45662363690790     -0.71724147703295
  H           3.27790702024572     -1.37131593480785     -1.04984958271878
  C           1.20123838762680     -2.79227951938840     -1.23037266648373
  C           3.38553634339512     -0.19858417495574     -2.87586823785996
  C           2.54456844928859      0.68593051546866     -3.75829154883462
  C           2.90497819685145      1.91309408804515     -4.08368992691331
  O           0.40758865872325     -0.96236856225222     -2.57131282263222
  C           3.98816397773856     -1.33267769998408     -3.70475084183958
  H           4.23872023312314      0.38770422717106     -2.50148150603130
  H           1.61931488804610      0.26079246124632     -4.11776336947402
  H           2.28993551266797      2.52233044004206     -4.72100221810655
  H           3.81973418261856      2.35964650458924     -3.72790870185158
  F           3.39078007907614      1.14333248096234     -0.38402992253420
  F           1.43031572666546      1.32937322663449     -1.23210652567031
  F           1.75915329230606      0.00889339980105      0.43160915127383
  F           0.01793433000318     -3.40407123195229     -1.49479947448309
  H           1.26605432761463     -2.64315501394215     -0.14398671412302
  H           2.00360382340796     -3.46304885054485     -1.56245592903030
  Br          5.09699171762861     -0.57601926195261     -5.11968191613708
  Br          5.15814603925285     -2.47464733385441     -2.61334745032461
  Br          2.64707657422891     -2.48104466623541     -4.53496044478125
