23
Coordinates from ORCA-job NEB E -43.173754305610
  C          -0.37693699703095     -0.12962430546150     -0.86655887692756
  C           0.41740328788824      1.04792993724451     -0.89554717887510
  C          -0.01609902172673     -1.34956934901454     -1.65286679806063
  H          -1.43883885116820      0.08742489337908     -0.95690630133475
  C           1.91749986331689      1.01315953722490     -1.13194864858291
  C          -0.38890905515310     -0.43794096604941      1.06061951100126
  C          -0.90099423797876      0.78257567871084      1.52828555439477
  C          -0.16443730497537      1.96382719615324      1.34684735292804
  O          -0.09055180567174      2.09165245813364     -0.35999737366145
  C          -1.19654159774858     -1.67774899538573      1.33835812565197
  H           0.68118278308293     -0.58518112045030      1.18686053199683
  H          -1.97345410867364      0.86256694744287      1.64328772243696
  H           0.90061405726062      1.94794615208613      1.54580992298127
  H          -0.63572581294920      2.90095836298913      1.60716835314157
  Br          0.51985774681740     -0.87537535755754     -3.50580724881444
  Br          1.44639259926259     -2.41576283783441     -0.91312123994157
  Br         -1.55149523347649     -2.54322486141218     -1.85927414558944
  F           2.50614361012226      2.07238141426270     -0.50011989356203
  H           2.15483191160307      1.10826316750770     -2.19887216533154
  H           2.38886962784782      0.10896677466469     -0.72898486881546
  H          -0.75571776395726     -2.57002166214953      0.90440529043237
  H          -2.22197050869111     -1.57548588901107      0.99116708293303
  H          -1.22112318800067     -1.82771717547321      2.41719529159882
