23
Coordinates from ORCA-job NEB_reactant E -43.210936997460
  C           1.57810417448917     -0.31267956232021      0.29833732419151
  C           2.30090951113858     -1.10920783031123      1.10153012521265
  C           1.91120418525593      0.15218656428546     -1.06054740313776
  H           0.65161464623031      0.09492080227180      0.67618814959673
  C           3.64612836384418     -1.72017024062328      0.79133506636011
  C           0.22043678240661     -1.11800666169107      5.29903840837415
  C           0.48040646847144     -1.76882655351314      4.17763920092698
  C           0.64960739372272     -1.10975343522058      2.84459147803458
  O           1.91844993936746     -1.50005629477594      2.32763562934497
  C           0.03515213222596     -1.76392912964826      6.62773091703606
  H           0.11473499422710     -0.04040163671449      5.28567491665748
  H           0.59664447171613     -2.84299948530429      4.17084175603604
  H           0.60373799895891     -0.01836075895521      2.94510550185946
  H          -0.14009754791254     -1.44188727171947      2.15458119901759
  Br          0.27569294462413      0.79818627334563     -1.93254810489952
  Br          3.17871794554456      1.68817837552494     -1.04915787853064
  Br          2.63710853067751     -1.22024912082321     -2.24696188689105
  F           4.47772999233579     -0.83350685615654      0.16932100231368
  H           3.54764803385158     -2.59210954875243      0.13350105064134
  H           4.11956167790219     -2.01498859499274      1.73246947147703
  H           0.75942014460423     -1.36785011396275      7.33832732998035
  H           0.15730380520038     -2.84144434388020      6.56101197580450
  H          -0.95851658888231     -1.54264457606281      7.01555477059375
