23
Coordinates from ORCA-job NEB_product E -43.205718960820
  C           1.53717818642901     -0.69748453981310      1.82631848761572
  C           2.89746190539776     -0.05592041597493      2.15238106767472
  C           1.51334872757297     -1.66677973816435      0.66321421662421
  H           0.93159517291994      0.15742799735811      1.48546361615021
  C           4.13413585822623     -0.93312295867619      2.21197317353602
  C           0.87011965472200     -1.12749874992550      3.17722273766000
  C          -0.61905116772312     -0.87364743196333      3.12347460456024
  C          -1.15247878151876      0.33357985264956      3.13799217643729
  O           2.93998189472833      1.11450144693243      2.40578036246347
  C           1.13695803136944     -2.55205187894539      3.64747042049766
  H           1.29139306470943     -0.43720833507819      3.91921461232060
  H          -1.24863329798544     -1.75061301718665      3.08252451491735
  H          -0.54714239263100      1.22509323162204      3.18886580561160
  H          -2.21704897779465      0.48138974780891      3.10096487723035
  Br         -0.32680927175395     -2.15721850860457      0.21437812295039
  Br          2.26536495856632     -0.74202513594449     -0.91967737963923
  Br          2.50140050617000     -3.33945800799018      0.82943615174896
  F           5.16502612847500     -0.23679102955431      2.76643600958948
  H           4.45346981346603     -1.22643456991819      1.20410405913348
  H           3.97457201198775     -1.82377286538225      2.82916851644008
  H           2.19830069623807     -2.77499654019341      3.72270637827118
  H           0.66437312068128     -3.28621358016999      2.99893360056152
  H           0.70588415774737     -2.66725497288604      4.63995386764469
