19
Coordinates from ORCA-job NEB E -34.726181552880
  C           0.35835015928934      0.44279116413059      1.45469360579288
  C          -0.20591714441784     -0.67880351211923      0.84162298992965
  F          -0.47360576186668      1.31468641677011      2.05787791525189
  H           1.30512945467822      0.36517572621340      1.97607179228092
  O           0.66269451277835     -1.70436077007686      0.61485658102449
  C           0.68100614442213      1.47546615529302     -0.27592110021738
  C          -0.62167291601828      1.55526390066957     -0.76047699470670
  C          -1.24871361955088      0.34374645276952     -1.15368210034593
  O          -1.32551118643905     -0.60189639341181      0.21537027500984
  C           1.33256628249017      2.64549878838955      0.19655494928269
  H           1.36649081736827      0.74929776244468     -0.70599271533828
  H          -1.23732672383777      2.38410812506777     -0.44470301796840
  H          -0.67608783063518     -0.31384728740627     -1.80149914829490
  H          -2.29544828788579      0.39548109503348     -1.42237974844641
  C           0.20415782872451     -2.77818454695378     -0.19158388552983
  H           0.65079871030025     -3.68474109946781      0.21268248282305
  H           0.53230040161661     -2.64139065119030     -1.22546990961748
  H          -0.88462827258232     -2.84844495693525     -0.16077437719438
  N           1.87541743156593      3.58015363077962      0.57275240626427
