19
Coordinates from ORCA-job NEB_reactant E -34.753153656210
  C           1.53700595930500      0.57642925071262     -0.48164034691518
  C           1.37876328880191     -0.17744714274852     -1.57179269378928
  F           1.08322210833854      1.85115671293109     -0.35601003485459
  H           2.04305890928793      0.21543574638281      0.39416227208293
  O           1.87721129552379     -1.43738482589899     -1.50913257149869
  C           1.62830281843125      3.60932393083171     -2.78704056663649
  C           1.58431374086324      2.34691576051469     -3.20558353201733
  C           0.40073729273959      1.44892223333562     -3.02896035829793
  O           0.77615254773951      0.10989848582993     -2.75328928024575
  C           2.75236006152487      4.43048381209629     -3.00017580238258
  H           0.80314189139545      4.06643461331858     -2.25764418608706
  H           2.43051964611866      1.90409342728198     -3.71499719948298
  H          -0.14133344959939      1.37419184596426     -3.97987997959875
  H          -0.28303868960869      1.83375128787381     -2.26573910688575
  C           1.71560446296232     -2.25660430241988     -2.65362546318428
  H           2.17849880765867     -3.20493177932704     -2.39038138172996
  H           2.21674567591450     -1.82728551681584     -3.52439636662494
  H           0.65924996905331     -2.40876542901972     -2.88639051553156
  N           3.66468366354951      5.10308188915658     -3.17248288631981
