19
Coordinates from ORCA-job NEB E -36.430646701840
  C           1.12096498834621      0.45501167841743     -0.06006964182638
  C           0.66163924885219      1.14102906008023      1.07078394829019
  C           0.77489952489201      1.03055652202639     -1.40606605910058
  H           2.10637861487453      0.00603106859777      0.00595802265709
  Cl          1.46146479965868      0.76579698904382      2.60154884162363
  C          -0.09564889970774     -1.07538014732793      0.18802932982230
  C          -1.36228024252279     -0.48802041603909      0.19092032241427
  C          -1.66092211220834      0.40284511730366      1.25251155519742
  O          -0.52313754681721      1.59585903512972      1.13997764370602
  N           0.23948639080758     -1.95924682620847     -0.90713445855847
  H           0.34108109606957     -1.43610769750898      1.11488487250830
  H          -1.88541307025101     -0.41045887282825     -0.75079318028572
  H          -1.44313112219507      0.05499713212355      2.25873517731212
  H          -2.58858266985614      0.95621252013514      1.18617217103526
  H           0.65221582581076      0.26073871342444     -2.16450439729817
  H           1.58561643047374      1.68311577524401     -1.72562295297199
  H          -0.13936208427558      1.61490545310837     -1.34478843619243
  O          -0.26762176838994     -1.74958313190875     -1.98553724798785
  O           1.02235259643854     -2.84830197281306     -0.66500551034500
