22
Coordinates from ORCA-job NEB E -41.204516691850
  C           0.24676899931144      0.13464414724958      1.09466939607334
  C          -1.08596537366396     -0.25567063283150      0.91709323608393
  C           0.56481158651358      1.55555862492022      1.48508022870384
  H           0.88090344406588     -0.59685943570417      1.58497926822868
  N          -1.46876249835193     -1.54366888245004      1.15707338761960
  C           0.75945317098651      0.10762950366197     -0.87589461995834
  C          -0.40131656727283      0.00192216876230     -1.63897720288047
  C          -1.45487650563959      0.89316514698110     -1.25032990653679
  O          -1.92271289730350      0.46479883154230      0.21824142064138
  C           1.75108064328940     -1.01144731593497     -0.97061800647715
  H           1.23634089939759      1.07570143198826     -0.80111396172535
  H          -0.69481710183328     -0.98556822269379     -1.97354715486238
  H          -2.38386166011625      0.81473449859588     -1.80421999844850
  H          -1.15212884012351      1.92905802452473     -1.11457247031599
  H          -0.07475662963638      2.26091764772065      0.96184769769860
  H           1.60797397247739      1.79169832663472      1.28693626714659
  H           0.39506789461101      1.67720360075138      2.55532433413103
  H          -2.29198632913933     -1.88443303298386      0.68884621519202
  H          -0.79279714948641     -2.21619708422755      1.47392681638902
  F           1.22493716419211     -2.19683164238719     -0.59947400506865
  F           2.23324624275190     -1.19510280800682     -2.21306011294965
  F           2.82339753497015     -0.82125289611320     -0.18221082868474
