22
Coordinates from ORCA-job NEB_reactant E -41.229125940670
  C           1.67389549733342     -0.15374774197228     -0.06066137022304
  C           1.46439789951451     -0.85384375171250     -1.17479961384653
  C           1.74156653488225      1.33798231996447      0.00265973118542
  H           1.80485128497924     -0.68779064616728      0.86814683476954
  N           1.47133925746057     -2.25018808339892     -1.24100689904701
  C           3.65960765302645     -1.24752882770892     -4.83615271152549
  C           3.17280177679083     -1.12574828107498     -3.61203813361198
  C           2.43207053038172      0.07906221663074     -3.11937346643688
  O           1.25750529967266     -0.25640541973313     -2.40629822451184
  C           4.41232127352651     -2.45381349881692     -5.29618269828586
  H           3.56578169221515     -0.48255037778488     -5.59216426198228
  H           3.28223059966944     -1.92411123846434     -2.88887000025364
  H           2.10145539490608      0.70573630086696     -3.95107466977557
  H           3.11039361620321      0.66245025811367     -2.47817868130424
  H           1.40519593273147      1.77723999903847     -0.93301102533799
  H           2.76026129914174      1.67304904673020      0.20673649298610
  H           1.10701005418190      1.70659717326485      0.80736095237368
  H           0.89123396950061     -2.60905572591962     -1.98705918521392
  H           1.29262298995130     -2.70730098357327     -0.35933264762769
  F           4.47373627897692     -3.43137328176932     -4.38287694994621
  F           3.86588167828920     -2.99642361974454     -6.40017449745415
  F           5.68583948666481     -2.15823583676846     -5.62314897493044
