19
Coordinates from ORCA-job NEB_product E -47.317633634610
  C           3.37393034716666      1.40739107794038     -1.95205537548083
  C           1.91433709002241      1.26958427837705     -2.33314792357392
  F           3.72212858409915      0.41326339192203     -1.08314734084093
  H           3.98694920655558      1.27645371322472     -2.85809005866678
  N           1.21874396642333      0.13747552547879     -1.58036197318812
  C           3.58259167548819      2.80693987268149     -1.33184577970147
  C           2.87781229788920      2.88589153406706     -0.00180927007356
  C           1.97655575686080      3.80586174272448      0.28237504545086
  O           1.31205276417087      1.96138074099837     -3.08426465191237
  C           5.05714593671524      3.17708260075116     -1.18081817743146
  H           3.13885098675941      3.52765565209150     -2.03235725663543
  H           3.15364072827599      2.12610041710581      0.71588600245200
  H           1.68793259871417      4.56694476343036     -0.42430889685062
  H           1.49112385097780      3.82903834079147      1.24116634019612
  O           0.82801648554256      0.44469642917023     -0.48641587765136
  O           1.12635082301159     -0.91210416556018     -2.14831045982904
  Br          5.17076495224854      5.02035296129447     -0.53640169125774
  Br          6.02055126631216      2.04047385873614      0.06685316450423
  Br          5.97732068276635      3.11441726477468     -2.91594581950957
