22
Coordinates from ORCA-job NEB E -58.871737227590
  C           0.64544940832297      0.79013766637447      0.14388421697408
  C           1.21546539249206     -0.10376490181314     -0.85255236085691
  C          -0.02921549106510      1.90574140568709     -0.15545035518679
  H           0.81423710606838      0.55168034491715      1.19012307991227
  C           2.57922605708498      0.16119352387832     -1.45085617617711
  C          -2.13144278936382     -0.90842181429914      1.02740454917662
  C          -0.99349084490343     -1.38261988614871      0.53610022065842
  C          -0.68115533301482     -1.52191666299048     -0.91646976771750
  O           0.67653021692917     -1.25500252984586     -1.23602493310799
  N          -2.34012363322144     -0.85071100074149      2.45460679187449
  H          -2.96977143380680     -0.55210627156992      0.44889460764834
  H          -0.23893866866473     -1.74374125075458      1.22657924915355
  H          -1.32641823197628     -0.87272248440578     -1.52236200074319
  H          -0.82935659913481     -2.56149609762045     -1.22991843885522
  Br         -0.78264823944606      2.99501391763723      1.16892156271722
  Br          2.60778626729240      3.88275604946385      0.02436682565851
  Br         -0.45023751930072      2.37905716952799     -1.92896375132986
  F           3.48806403170975      0.39278934700225     -0.49522404436406
  F           3.00581192645609     -0.87951943728722     -2.16496083880182
  F           2.58470068826753      1.22627321781308     -2.25972848622433
  O          -1.39283015413327     -1.09005572019544      3.16779064771614
  O          -3.45164215659204     -0.56256458462921      2.82383940187513
