22
Coordinates from ORCA-job NEB_product E -58.933827977740
  C           1.41017733243975     -1.48735591957163      1.50289540308460
  C           2.78057456891480     -2.21661735338066      1.45016466759353
  C           1.24423202615090     -0.42779448033271      0.42033694147939
  H           1.51293061809969     -0.91265498381730      2.43924022980900
  C           3.21097673649450     -3.05830399834317      0.21674561189887
  C           0.18623797904978     -2.40872043983242      1.70325040827952
  C          -0.55768609875992     -2.90636641244730      0.48934335425730
  C          -1.82109843649858     -2.58978029505059      0.26663801931066
  O           3.62347588799196     -1.92931177732069      2.25225403044577
  N           0.65324732821226     -3.62347208987783      2.42493992002338
  H          -0.54038053652493     -1.91237809998282      2.35804722790192
  H          -0.02542746502211     -3.57381392551357     -0.16973652380479
  H          -2.37896775365179     -1.93540727362125      0.91614519396172
  H          -2.33655641467003     -2.96414281331422     -0.59957859176739
  Br         -0.35625988126870      0.62821413735415      0.84766972223724
  Br          2.77914399561069      0.79519466939606      0.46916762036249
  Br          1.03296872756089     -1.05311382954607     -1.40306954031791
  F           3.75090997781474     -2.24987590803616     -0.70891472253898
  F           4.13212251539209     -3.94210170330360      0.56147336710838
  F           2.21640619083528     -3.72244533024056     -0.38359665704478
  O           1.81417181154318     -3.94162691314228      2.24717224768237
  O          -0.14159910971443     -4.21812526007539      3.08781207003769
