22
Coordinates from ORCA-job NEB_reactant E -58.936900117210
  C           1.36140434519382     -0.50149873218594     -0.17314548927608
  C           1.97917423807134     -1.62785642227762      0.20341434079364
  C           1.90219494279311      0.66285606378460     -0.91345656503389
  H           0.30744755689962     -0.41474306989764      0.05198145501407
  C           3.44696722012309     -1.98110442759118     -0.02444726038675
  C          -1.21578834605052     -4.00627236972519      2.87135072754395
  C          -0.26656869609002     -3.86490292995720      1.95738816156538
  C           0.05436191191632     -2.58930369591936      1.25442150639240
  O           1.41861692201461     -2.64426803611477      0.87705928322991
  N          -1.47487929450218     -5.28894970611181      3.47605256597027
  H          -1.85997551146644     -3.22199274770310      3.23936203473285
  H           0.33157726317488     -4.72220746106064      1.67174060340295
  H          -0.13337488251030     -1.72181308109077      1.90003710194472
  H          -0.57850960768002     -2.50821799187031      0.35694249904633
  Br          0.63067269872617      2.14460731876726     -0.75668706182146
  Br          3.61638663300304      1.33265943358614     -0.24996547056784
  Br          2.06560790747003      0.26524901869118     -2.85104760239908
  F           4.22073986216689     -1.51487124646129      0.96266336799951
  F           3.60964466716844     -3.30196443035867     -0.05927683275150
  F           3.93063221052273     -1.50320482366038     -1.17190851211668
  O          -0.82819963364251     -6.23793065544802      3.10046287642472
  O          -2.33463240730209     -5.31297000739529      4.32595827029258
