18
Coordinates from ORCA-job R E -21.261621612340
  C          -1.38295679626441      0.03677525124524     -3.03921654709734
  C           0.00520982108267     -2.27665180013879     -1.65409876218074
  C          -1.30809187249252     -2.08298686681292     -1.75836875179810
  C          -1.98043529704901     -0.98852803615024     -2.41520266682862
  C          -0.64757884235314      1.36507893101777     -0.16590357649899
  C           0.00881503545220      0.39494125881370      0.43460283791623
  H          -1.97136812306785     -2.80717095787927     -1.30024720756083
  H          -3.06296219598406     -1.00936829732739     -2.38609664986536
  N          -2.05010408172727      1.02986043224625     -3.71928593379996
  H           0.40522516991522     -3.12777166666071     -1.13077302738494
  H          -0.30746377762835      0.10242438732434     -3.10382728415799
  H           0.72610327174258     -1.60377877345746     -2.08416988954114
  H          -1.72101969455604      1.44209300334491     -0.11583938474801
  H          -0.49663326060948     -0.37037532614086      0.99858247338337
  H          -0.14297301053317      2.13152484274819     -0.73182652662242
  H           1.08216635062295      0.31575852096054      0.38540755853776
  H          -3.03637662807564      1.10616571533187     -3.52159320323508
  H          -1.57623606847467      1.91294938153482     -3.81290345851783
