15
Coordinates from ORCA-job NEB E -31.491190765560
  C           0.57546805169240      0.76369187474372     -0.29382389515980
  C          -0.36205963727813      1.71862436281637      0.18440976809936
  C           1.87870006671631      1.15207683009923     -0.77742380236716
  H           2.11172783896912      1.70279462429762      0.16917787740743
  F           0.23189511275388      2.97212962928915      0.30953504685487
  C           0.33467328951733     -0.70856515995809     -0.24554459528621
  C          -1.10352690251815     -1.05376266852272     -0.02233784850459
  C          -1.52056839747007     -1.74595331274514      1.02111647513272
  O          -1.51899541165550      1.61090653203060      0.44178232745489
  Cl          0.86329839719117     -1.39781629903722     -1.84393803088217
  H           0.96771115264548     -1.20284909273809      0.49925810901404
  H          -1.78435819517166     -0.71607716783838     -0.78771157021966
  H          -0.85069369685285     -2.08410444609487      1.79470691134553
  H          -2.55961973255319     -1.99501730953964      1.14223270622266
  N           2.73634806401387      0.98392160319746     -1.59143947911190
