15
Coordinates from ORCA-job NEB_product E -31.587132206630
  C           1.98062071478707     -1.25639411634555      0.63564899034721
  C           3.01571099227413     -0.65057680835143      1.55948589994909
  C           2.44341187505774     -1.17997584472336     -0.73828822844249
  H           1.07359300987524     -0.63823392208497      0.71273235310331
  F           3.29861499585123      0.61873673280049      1.17591642420321
  C           1.65351763427953     -2.70635585007327      1.03092355429676
  C           0.48683383141022     -3.24558907753317      0.27381770548270
  C          -0.55197232263934     -3.81872068266867      0.85319952926055
  O           3.52508960228776     -1.11326592110804      2.51154786843880
  Cl          3.09966544514368     -3.73187753272949      0.67009453800704
  H           1.49916003245230     -2.76804097700158      2.11105159239303
  H           0.55748448805415     -3.16161619566672     -0.80191736677603
  H          -0.62267482256857     -3.91895815685108      1.92381292491849
  H          -1.37177033446280     -4.21169065933952      0.27835955768462
  N           2.78561485819767     -1.12814098832364     -1.82468534286629
