17
Coordinates from ORCA-job NEB E -30.288379202000
  C           0.69471097838858     -0.51037494329481      0.88593129310224
  C          -0.48510172739100     -1.05420019927480      0.31563554930602
  C           0.54908884187380      0.34241637399336      2.00862961812301
  H           1.56984712429129     -1.15240334285847      0.93700663416133
  N          -0.40148187733469     -2.22650187459906     -0.39576277243323
  C           1.08049947716974      0.82278258445132     -0.52715222203240
  C          -0.07780346829386      1.59678098360845     -0.55779700476565
  C          -1.26664810195262      0.94297147653018     -0.94412175339690
  O          -1.53044917910098     -0.32876083624602      0.16264725906179
  Br          2.72597266771718      1.64682380726680     -0.00819038728038
  H           1.26179622098088      0.10469081981567     -1.31966526296402
  H          -0.14261428781674      2.45147427798514      0.09885494482578
  H          -1.22935270412554      0.33189180571845     -1.84065357480553
  H          -2.18980456047077      1.49515680113574     -0.83802492523023
  N           0.42229740152228      1.03578994335303      2.91063802061233
  H          -1.27162636626938     -2.58979962101239     -0.75108509275905
  H           0.29066956081184     -2.90873805657256     -0.13689032352510
