17
Coordinates from ORCA-job NEB_product E -30.343772459870
  C           2.91329065135854      0.54641275286090     -1.45152044111821
  C           1.80843581791247     -0.40604343022188     -1.97807041289029
  C           2.82790537160662      0.70377648529993     -0.02261595052371
  H           3.87730385665922      0.07621106251446     -1.69115262703506
  N           1.48426037586692     -1.39626718344127     -1.12797283790225
  C           2.79911761018017      1.88831338627723     -2.18655637834226
  C           1.61812202742571      2.68271800078657     -1.75144602697549
  C           0.68565568573977      3.09960571525593     -2.58758101419408
  O           1.32959976341492     -0.27603174959354     -3.07616325468538
  Br          4.45160838885871      2.94248604325679     -1.86616820073229
  H           2.77330561659289      1.70105141939907     -3.26205342837818
  H           1.57189388907095      2.90854635898613     -0.69367181156825
  H           0.72837578044619      2.87571289128695     -3.64053251390596
  H          -0.16264261914202      3.66736026960531     -2.24775401352257
  N           2.73186324174905      0.81024772838931      1.11183997449424
  H           0.76784717920347     -2.04854533776585     -1.40401236112914
  H           1.84445736305640     -1.44515441289604     -0.18996870159110
