17
Coordinates from ORCA-job NEB_reactant E -30.322571908120
  C           1.70418606610272      0.01679027170291     -0.07047915312613
  C           1.53175906269028     -0.40748392413854     -1.34624093044889
  C           1.74165413870451      1.32510778377306      0.40572828615154
  H           1.82394022931016     -0.73814249046930      0.69380943705715
  N           1.46724008207398     -1.74246178651161     -1.64413307578778
  C           3.07747970840913      3.12729922580799     -3.40809576678593
  C           2.64850895246514      2.34617197350912     -2.43400918240689
  C           1.27905726201544      1.73391046053598     -2.43312030091741
  O           1.33671782523240      0.31749959525935     -2.47046080813563
  Br          4.79826297152147      3.89768490059032     -3.41413713406136
  H           2.48638579534900      3.40166566133560     -4.26786004814134
  H           3.28119411565498      2.10711939065502     -1.59157251555402
  H           0.73431796683386      2.01323664172286     -3.33917763295577
  H           0.71891200673683      2.07281470028461     -1.55483278816004
  N           1.79074290982972      2.38234646153907      0.85963268457066
  H           1.52618216214668     -1.97768094240148     -2.62067159184726
  H           1.86975874492369     -2.39477792319496     -0.99487947945090
