69
Coordinates from ORCA-job A3S E -98.673932545510
  Ru          1.93328915189659      3.30893984249735     -0.33615746467870
  H           0.43106951367567      2.31584515041180     -0.36062560061923
  N           2.37551100150094      2.28211113566275      1.44724520516424
  C           2.66836340898026      0.94355825280562      1.33297979389256
  C           2.24700339062788      2.83076911269314      2.66130743530988
  C           2.75218939271496      0.15483789762367      2.51604386337770
  C           2.35348561991649      2.10536693440511      3.82778302792535
  C           2.60364005674823      0.72886250504846      3.74130118598515
  H           2.95463416424067     -0.89985347584016      2.40890260216447
  H           2.24793516932205      2.59232088525374      4.78270974320710
  H           2.68316411214467      0.14053464755462      4.64289504222142
  P           3.17403076727020      1.54800053447641     -1.23063475212915
  C           2.67681567375067      0.74085361046225     -2.87340958919303
  C           5.07058220982757      1.82792139912322     -1.20646938798267
  P           1.31856472720140      4.92242037777930      1.13880115417069
  C           2.28761680527882      6.40694137990238      0.92925310325062
  C          -0.05079368349137      5.91299498823785      1.72658441726972
  C           2.83006755259722      0.38386208530055      0.06102253182973
  H           0.88828808567410      0.12901698279885     -0.02017829098413
  H           3.16485886794467     -0.64243752430482     -0.01459742644439
  C           2.02203772261032      4.31850076215668      2.74016799252382
  H           1.37169148900729      4.57697717361034      3.58125673286685
  H           2.98780679273035      4.82487752854217      2.87734570617635
  C           1.51371116643254      4.19405000397823     -1.90494497951573
  O           1.27354035625755      4.78102096479881     -2.86524288255785
  H           3.23219664886206      4.09879752204069     -0.27579234538214
  C           2.94652760589320     -0.76250335418401     -2.88797884576956
  C           1.17048310887992      0.95858222614463     -3.04269301689814
  C           3.37090744917858      1.43997425054779     -4.04087774846738
  H           2.34488428157451     -1.26647413155407     -2.13500851882518
  H           2.66937019184007     -1.16515727815457     -3.86172064222678
  H           3.99202416545494     -0.99477334761764     -2.71315939787710
  H           0.92856745983929      2.02330670100230     -3.01713308050418
  H           0.85222453030596      0.56766684485652     -4.00877729212422
  H           0.60631471243558      0.43528444013008     -2.27509212639104
  H           3.27293981758193      2.52068649363903     -3.94253805875019
  H           4.42295662796300      1.17955567995884     -4.10612937905595
  H           2.89986431061288      1.14070122800999     -4.97696398098832
  C           5.42670733538038      2.13861857272099      0.25043255902969
  C           5.85177851609056      0.58231691012333     -1.62034059770139
  C           5.45815618903682      3.03510128619365     -2.06017374831999
  H           5.21911059101224      1.28985009831924      0.89986266694653
  H           6.48779276845009      2.37088218465186      0.32738822616478
  H           4.86550571058123      3.00230444580154      0.60937278691709
  H           5.74885051433968      0.36496066311001     -2.67962334432620
  H           6.91098027971992      0.73974396813770     -1.41812576197013
  H           5.52667753833178     -0.28289981272562     -1.04454821108356
  H           5.48092156324381      2.80015422266831     -3.11868125917529
  H           4.75324043405247      3.85167698252149     -1.89677226145710
  H           6.45069815567354      3.38109005032738     -1.77514275300556
  N          -0.91728536258167      6.58499282129366      2.05919714394515
  N           2.91946086317245      7.35356233180556      0.80045927912850
  C          -0.41241382789558      1.59659989088153      0.00321994069112
  O          -0.06013721583694      0.27798398275094     -0.26475987415740
  C          -0.65280580943324      1.84719524228987      1.48051429865511
  C          -1.07684212094500      3.09642732058317      1.92212209005436
  C          -1.31213995082493      3.32618344562086      3.26621858215953
  C          -1.12301785499626      2.30828926074882      4.18649323975937
  C          -0.72345152060484      1.05759928000445      3.75149486267256
  C          -0.49677309508006      0.82480614642175      2.40609374187670
  C          -1.66377107204140      1.91905011020338     -0.81540456723174
  H          -1.28023341812182      3.88147671106444      1.20327466848641
  H          -1.65125047023818      4.29979578465768      3.58905531762864
  H          -1.30047213345664      2.48826170310571      5.23618137135559
  H          -0.58964592281591      0.25381062441194      4.45980215986931
  H          -0.20654006912127     -0.15947484613220      2.07049016946211
  H          -1.48480277169593      1.69563212379254     -1.86392521703358
  H          -1.94641166210032      2.96315971288283     -0.71889892519941
  H          -2.47998060657667      1.29252835196528     -0.46185131411174
