69
Coordinates from ORCA-job TSA2S_3S E -98.667928660270
  Ru         -1.29702343276966      0.34855658977521     -0.44536632730104
  H          -0.89065029768526     -1.34506877329831     -0.49187946118905
  N          -0.18375710004031      0.39538907985904      1.34215279582360
  C           1.15561897734854      0.19683328088014      1.24471024533171
  C          -0.75115515608076      0.52345332150967      2.54456835642312
  C           1.93890571004987      0.11924342993693      2.41147066703082
  C          -0.02205191442978      0.45792631383769      3.71892402395126
  C           1.35254198269140      0.25223949029473      3.64428798867560
  H           3.00035033955673     -0.04659003590362      2.31328765526184
  H          -0.51825014635414      0.56778200776171      4.66905084235769
  H           1.94278334852541      0.20009880727058      4.54614444458631
  P           0.78863000081947      0.86940202989401     -1.34419267071702
  C           1.36651710434352      0.14134816717616     -2.99547446503199
  C           1.33296427786883      2.69815797126197     -1.22239413206095
  P          -3.02075969046188      0.27259814112282      1.01045088088938
  C          -4.16960432884289      1.62516748885334      0.81250502969330
  C          -4.35880299659496     -0.75355476969205      1.61872685053533
  C           1.72047004644364     -0.01082909481020     -0.06665887982081
  H           1.40189574140316     -1.34150893525870     -0.29777701652467
  H           2.80553018714449      0.05115502579116     -0.11277644567652
  C          -2.23136420229219      0.78558525297429      2.60683238201789
  H          -2.68626828671169      0.27610682150333      3.46174976311420
  H          -2.40427523932940      1.86591779216134      2.71244471778590
  C          -2.28475759764262      0.32073064526787     -2.00959028376841
  O          -2.93196823408493      0.35897888053242     -2.95951459944463
  H          -1.57934305215754      1.85590369033598     -0.31957074307971
  C           2.84892226809499     -0.22842569625058     -2.98411495271965
  C           0.55988274297367     -1.13922370995700     -3.22211888138641
  C           1.03700628543911      1.09823335144604     -4.14093180138881
  H           3.03416121292966     -1.02831927689177     -2.27143086560020
  H           3.12955023070820     -0.59055211265778     -3.97253317771410
  H           3.48750538040870      0.61541517218932     -2.74377295071862
  H          -0.51086710541666     -0.92807713269870     -3.23548406928026
  H           0.82851028536478     -1.57343747942236     -4.18440980019470
  H           0.78103242105899     -1.87586521667531     -2.45293358763820
  H           0.00710835531126      1.44447180263781     -4.05579194022159
  H           1.70374856712416      1.95519614366229     -4.16755587741779
  H           1.13896313769099      0.57410417733247     -5.09077777311828
  C           1.18150017929801      3.10904687080339      0.24525548293638
  C           2.78972685806355      2.92380393263263     -1.62203444951146
  C           0.39089387124834      3.56878766339313     -2.05511672458569
  H           1.87920223114044      2.57384506076717      0.88718588114613
  H           1.38429374653528      4.17433816587075      0.34741823340779
  H           0.16458412656943      2.92766324303130      0.59418664103760
  H           2.95392637185407      2.76491540807470     -2.68353987149804
  H           3.06419137957263      3.95436655547298     -1.39774652769556
  H           3.45414746711555      2.27233749066404     -1.05664697387279
  H           0.61665081945963      3.52093756102759     -3.11468439280844
  H          -0.64188453900414      3.25233821394249     -1.90222170583727
  H           0.47766232051926      4.60850690095737     -1.74310362078380
  N          -5.25644159028310     -1.37862152982197      1.95961174660488
  N          -4.89379091278876      2.50405113180954      0.69087413816627
  C          -0.39910233781984     -2.44608038853318     -0.16725787110014
  O           0.89368749801374     -2.47849767695388     -0.49944558946177
  C          -0.66462284125929     -2.57258409088174      1.32427379913343
  C          -1.95810244879397     -2.56095637952880      1.83419188702559
  C          -2.18086854581975     -2.68726145336871      3.19405518009553
  C          -1.10994740238823     -2.82512832916106      4.06210007935579
  C           0.17866096357270     -2.86251188772622      3.55950473742603
  C           0.39975655122244     -2.74385181976016      2.19894712562823
  C          -1.20990047771552     -3.48182458743320     -0.95618652473193
  H          -2.80309247218868     -2.50995343161105      1.15790330869820
  H          -3.19386762544003     -2.68758248547775      3.57079473018936
  H          -1.28274454124766     -2.91821818406822      5.12413826099475
  H           1.01778055046821     -2.98841233118393      4.22795707403723
  H           1.40067691745932     -2.79340719006886      1.79595483348382
  H          -0.98823337415007     -3.38988772213540     -2.01641700412680
  H          -2.27945228036050     -3.36508910447845     -0.80556324084149
  H          -0.90699028525795     -4.47361224800644     -0.62464458397640
