69
Coordinates from ORCA-job TSA2R_3R E -98.665538254220
  Ru         -1.14779963377241      0.54926036144530      0.29103051684883
  H          -0.62882413423788     -1.08151822324757      0.16213443153592
  N           0.04031541131780      0.51138138890164      2.03175164091425
  C           1.37461982019852      0.33123285086105      1.86522198505028
  C          -0.48562868254032      0.52561339831373      3.26094084571393
  C           2.19913246994856      0.14498866933460      2.99104161160779
  C           0.28418788164417      0.35125070549973      4.39752413602803
  C           1.65601368742658      0.15608268412550      4.25150394242284
  H           3.25504120039386     -0.01458623210616      2.84006829851162
  H          -0.17590515070791      0.36578951790269      5.37186191331699
  H           2.27779764378443      0.01247494925876      5.12169467773288
  P           0.88075926398972      1.18327864209151     -0.65442494380581
  C           1.40223088501831      0.57394487016267     -2.37093741727884
  C           1.39180910468936      3.01037510445234     -0.42977027601000
  P          -2.75939993394294      0.14137387108743      1.80776367585042
  C          -4.25379790804179      1.10855519997209      1.83641326795676
  C          -3.61626834013625     -1.30146243080262      2.43576430348968
  C           1.88554097112701      0.23524782247060      0.51865687344427
  H           1.60375816288024     -1.07599043092682      0.21868101047088
  H           2.96622643075638      0.32386976695509      0.43213912494696
  C          -1.96786959421941      0.75445046947409      3.36975465928322
  H          -2.39008680090993      0.29323933274042      4.26761511098183
  H          -2.16726380779907      1.83531417793765      3.39851046389560
  C          -2.19303044108213      0.59405432970640     -1.23573188491214
  O          -2.87391280910898      0.67796995127797     -2.15787760715505
  H          -1.52953677899603      2.02353072954319      0.54438738905152
  C           2.89337334414301      0.24969372519902     -2.44841385633993
  C           0.62160409706401     -0.71358219273294     -2.64781422451027
  C           0.99657256638153      1.59473244770975     -3.43401885993852
  H           3.13297259050560     -0.58888923296465     -1.79927590561179
  H           3.13819789250070     -0.03918527683018     -3.46986422826125
  H           3.51888445479957      1.09539392270797     -2.18111953148061
  H          -0.45502702250718     -0.54504069168268     -2.58910834608473
  H           0.84812946009946     -1.06781189764528     -3.65249046475947
  H           0.90147075476142     -1.50082882564483     -1.95241856729810
  H          -0.03748321416044      1.90409435448215     -3.28187511769910
  H           1.63891574583479      2.47075293565482     -3.42988823457130
  H           1.06974848064972      1.13858901837811     -4.42075959804903
  C           1.28652341153181      3.31275387158676      1.06788158652028
  C           2.82447556411150      3.30340958833854     -0.86929777440941
  C           0.39348430267093      3.90831205665593     -1.16205834520223
  H           2.01939383568169      2.75054044576599      1.64444512083687
  H           1.46920370662079      4.37270764883023      1.23975131455709
  H           0.28710305295140      3.08119499888124      1.43640265119003
  H           2.94813782680390      3.22206162094812     -1.94511490610464
  H           3.08232182068358      4.32342565514722     -0.58489387234062
  H           3.52783437317315      2.63319513977586     -0.37764710571641
  H           0.57819129054083      3.94197770902397     -2.23018559213796
  H          -0.62300704676751      3.54912767503506     -0.99354887930911
  H           0.46287515043439      4.92580286794617     -0.78014942399804
  N          -4.16283566687812     -2.23791986272851      2.80617883877263
  N          -5.20742847200228      1.74243709587522      1.84219449459398
  C          -0.18525956179481     -2.21997301558620      0.27224827597143
  O           1.12005995963346     -2.22374143696133     -0.01883968089553
  C          -1.02963427485153     -3.03415215119723     -0.68721173164912
  C          -2.38488214178941     -2.78951013488885     -0.85622206372549
  C          -3.13919200655641     -3.57829107397157     -1.70353630445293
  C          -2.54252966368827     -4.62064630324763     -2.39398436649722
  C          -1.19065548356418     -4.86808905743420     -2.23260067532314
  C          -0.43762897930592     -4.08016391066082     -1.38126185792312
  C          -0.48171375891813     -2.68257544672915      1.71124109694990
  H          -2.86202151952304     -1.96513845666449     -0.33023079540660
  H          -4.19260511065695     -3.37585201621716     -1.82846969876836
  H          -3.13183971953329     -5.23442641974040     -3.05903578735984
  H          -0.71933097521381     -5.67725728502611     -2.77095539050018
  H           0.61877988650711     -4.25675554065669     -1.24491226176907
  H          -0.19999552004624     -3.73196140161709      1.78487458948814
  H          -1.53984917751485     -2.59289729796107      1.95449665242246
  H           0.11655682950810     -2.12523532558441      2.43177107689761
