17
Coordinates from ORCA-job NEB_product E -41.884736254070
  C           1.60652018037543     -0.71551401123315     -1.39772366391565
  C           0.76764964524613     -1.12462253442462     -0.21643701834141
  C           1.42556862440541      0.77743378081087     -1.69190771018032
  H           2.66587015870817     -0.86789866026470     -1.15344560526645
  Br          1.44385034515211     -2.77713357016271      0.58836997265531
  C           1.31271774459940     -1.68081084793724     -2.58777844524403
  C           0.01529797529451     -1.43143771472355     -3.29394118450817
  C          -1.11150892923687     -2.03251597045484     -2.96217020899154
  O          -0.19109630116390     -0.61971031438504      0.24119057578730
  F           2.35659142426797     -1.58752810097174     -3.47400792534609
  H           1.35131367233044     -2.70824920301920     -2.19753026937431
  H           0.07374624761104     -0.73955560232087     -4.12051881619777
  H          -1.16896875651898     -2.73417751348340     -2.14575889726338
  H          -2.02755781588333     -1.83592412798582     -3.48920463580601
  Cl         -0.25471681077427      1.23317702420479     -2.01816620958481
  Cl          1.97267643403256      1.68310621515929     -0.24360430245628
  Cl          2.43264616155418      1.27796115119195     -3.06486565596639
