17
Coordinates from ORCA-job NEB_product E -33.296872425160
  C           1.74182785856716     -1.01247729255789      1.64412887094420
  C           1.04738666983505      0.26834300449234      1.21499195316867
  N           1.57628990580502     -2.05615049931602      0.60085817117168
  H           2.81750322777150     -0.82034249650193      1.72487372595348
  H           1.27008384417705      1.10371017174565      1.90319426529688
  C           1.17213094785947     -1.46069839193547      3.03597140513005
  C          -0.33216282833755     -1.36690030731571      3.02953865268424
  C          -1.00715808387098     -0.43260745247484      3.67060261557600
  O           0.32924101673857      0.38677857650519      0.27252496198013
  O           1.64321816501112     -2.72471635216745      3.38618031599931
  H           1.58421667176665     -0.77199313236822      3.78278484051015
  H          -0.83812789912038     -2.13227801334947      2.45789836610993
  H          -0.51625932384716      0.33114831497057      4.25172267443941
  H          -2.08179468789669     -0.39439191746320      3.64200616889050
  O           2.26579046609443     -1.93732872136061     -0.37612717822991
  O           0.78164616708527     -2.94222939372824      0.80243703773453
  H           1.17946788236148     -3.38756609717471      2.85121315264073
