17
Coordinates from ORCA-job NEB_reactant E -33.311025680200
  C           2.24609701943444     -0.59588323896874      0.58488820426572
  C           1.40069342555670     -0.58173344336796      1.63117441652808
  N           1.85028042165102     -0.80719370402017     -0.75609723024996
  H           3.30397503339189     -0.44506050191299      0.71606583788574
  H           1.81514866991539     -0.42510781763126      2.62608698754539
  C           0.26247490872816     -1.88426824642747      4.77097662819628
  C          -0.33422283908676     -1.95624508865967      3.58713497065930
  C          -0.65232508410597     -0.75687340919204      2.75232580338120
  O           0.09736348904885     -0.74266779859871      1.53642721140998
  O           0.59097498946464     -2.92207979844483      5.55967492598041
  H           0.52669124639124     -0.94316991098236      5.23480655886019
  H          -0.58253423176113     -2.91351710165084      3.14967378568038
  H          -0.46377280174884      0.16446925625697      3.31585778172812
  H          -1.69335912427306     -0.77479732714170      2.42111245547280
  O           2.74008536818942     -0.79277962588901     -1.58885928002306
  O           0.67751042988293     -0.99213105646398     -1.00862844478413
  H           0.34151907932109     -3.75736118690526      5.14237938746354
