22
Coordinates from ORCA-job NEB E -49.056356958090
  C           0.81330404908872      0.29134392449026     -0.09716024277370
  C          -0.27162188139056      0.97239807015974      0.67215214769431
  C           0.74427991170378      0.59842455751866     -1.59989816527566
  H           1.79657789097722      0.63188751135408      0.22939080275083
  C           0.03724694873479      2.12041198008713      1.51671470501320
  C           0.59930600828073     -1.21232863373564      0.23935668788035
  C          -0.85500559153449     -1.33707757213905      0.53336017008014
  C          -1.92259939276923     -0.42443315742031      0.07210501424519
  O          -1.54680767005869      0.91976557737722      0.18078359979186
  N           1.07065707956004     -2.14454010406342     -0.75717379821163
  H           1.18194645877742     -1.39747311914189      1.14867861478173
  H          -1.19685846051289     -2.35575177054334      0.68423940019327
  H          -2.79640172577630     -0.53785034807573      0.72636206077083
  H          -2.26389010615362     -0.65671716460560     -0.94931225326548
  F           1.88532027607328      0.22021075029003     -2.21351674982942
  F          -0.25302982431956     -0.06800563781519     -2.23192280413665
  H           0.59542211125329      1.67284610364350     -1.78779654595565
  Cl          1.34820834031853      1.73070205053477      2.64842313119579
  Cl          0.66364714659632      3.56987895165122      0.51791303656900
  Cl         -1.36565513822433      2.68693242769439      2.40677011086309
  H           1.28451980118725     -3.05808548193674     -0.38594329546666
  H           0.45143376818828     -2.22253891532409     -1.55352562691475
