23
Coordinates from ORCA-job NEB E -48.032972562490
  C           0.36404708042174     -0.48903935435362      0.68630861655700
  C           0.26177286986177     -1.39212586761588     -0.40545824165256
  O           1.57462912261925     -0.05220915359148      1.07686728356985
  H          -0.37219779870706     -0.60313235312646      1.48261700696673
  C          -1.03365421617549     -2.20904135897944     -0.44679184260810
  C          -0.32302709936097      1.15049996390445     -0.33272641927450
  C          -0.38361326195108      0.86667338148796     -1.70254867879841
  C           0.75170728206242      0.38217136436487     -2.32436560429598
  O           0.93160049200126     -1.26913534986311     -1.46180558464759
  N          -1.54156780351530      1.52063994316218      0.35556294605340
  H           0.53205291119464      1.69641542323064      0.04796690815970
  H          -1.36147603611121      0.66421192734908     -2.12093246327100
  H           1.72240112297049      0.71526869710111     -1.98874977403165
  H           0.70349981434519      0.05179718032583     -3.34895104857905
  C           1.61441152527265      0.58830015342494      2.34295578968419
  H           0.90646761751378      1.42035462639136      2.39445904220614
  H           2.63100110532815      0.95508622388968      2.46424791888402
  H           1.38311374698483     -0.12357885379195      3.13961235263177
  F          -1.20771723406846     -2.87896058059765      0.71650355664953
  F          -2.11849725190240     -1.39942641035128     -0.57481596752978
  H          -1.03884536124435     -2.92820773370546     -1.27702549073817
  O          -2.58019230496827      1.52750292218304     -0.25409484700416
  O          -1.41591632257157      1.80593520916123      1.53116454106863
