23
Coordinates from ORCA-job NEB_product E -48.072270221230
  C           0.91365671306935      1.19654655882945     -0.62960284313591
  C           1.10162155401536      0.01611823100062     -1.58306621366814
  O           1.98367902843372      1.23158407344705      0.28691351850533
  H          -0.04507355204796      1.04368551063594     -0.10837713729508
  C           1.67801861845690     -1.23015654789083     -0.88002344158319
  C           0.84137543926585      2.51022223819847     -1.43076814496360
  C          -0.28876233123832      2.54504877194526     -2.41939677310457
  C          -0.16468634238290      3.02485719385052     -3.64225512271341
  O           0.86607108713587      0.02879940958971     -2.75369934913452
  N           0.58428112869938      3.63847061303842     -0.48374236208378
  H           1.80066665261572      2.71589002256224     -1.91282288448464
  H          -1.23818116657321      2.18994617501113     -2.04400983859154
  H           0.77548550169627      3.39049290031570     -4.01892186136062
  H          -0.99936461005685      3.05348284771316     -4.31949460456656
  C           1.63237736559779      1.25137276520737      1.66360940282352
  H           0.97391139789733      2.08993944410990      1.90076691079831
  H           2.57289505628244      1.36414049988552      2.19767434076081
  H           1.15207115675553      0.31555125299006      1.96009636366574
  F           0.99983621743015     -1.49210905678752      0.26206653210318
  F           1.56390830562658     -2.31640174050637     -1.66253864077713
  H           2.74063617391492     -1.08201014535087     -0.62654414472635
  O          -0.24530597589087      3.45834664680781      0.37337715457976
  O           1.19348258129696      4.65588233539726     -0.67324086104759
