15
Coordinates from ORCA-job NEB E -31.276396409140
  C           1.11650556108810      0.91157362332347     -0.29389174936896
  C           0.61817449091979      0.67422398320149      0.98651181824795
  F           0.55680397602060      1.90252348704950     -1.01624888721446
  H           2.17973774966929      0.82987010179325     -0.48894854702018
  O           1.42399898285268     -0.04465463813465      1.81850130303134
  C           0.24851960273128     -0.65528588251619     -1.19952351901478
  C          -1.08610577487978     -0.40523860519802     -0.93249976647625
  C          -1.49533678375680     -0.43914310239761      0.42866673737075
  O          -0.64485871658572      0.72744247209164      1.23385006342621
  F           0.69237469535923     -0.53519849978636     -2.46122859674551
  H           0.80726274065675     -1.42902359238991     -0.67803862300028
  H          -1.63038162118228      0.20873660341217     -1.63312206830214
  H          -1.19219079346444     -1.31420239112830      0.99812297420280
  H          -2.51355178702782     -0.13622571530753      0.63294977464287
  H           0.91904767759912     -0.29539784401292      2.60489908622063
