15
Coordinates from ORCA-job NEB_reactant E -31.298326022540
  C           2.10640758961096     -0.14519380654465      0.05473044359359
  C           1.34750255130040     -1.24156206332086     -0.00222716026898
  F           2.29319402692826      0.64477433043094     -1.02673940220359
  H           2.62456722839615      0.20350483334514      0.93151530227304
  O           1.15037564943177     -2.04420145160644      1.08144903609580
  C          -0.60388617754695     -4.12824517589218     -3.09277064771429
  C          -0.67708640171194     -2.99593197614984     -2.42128731878200
  C          -0.06288440475688     -2.80240509119221     -1.07477414424709
  O           0.72974706265387     -1.62299678418709     -1.13183633857124
  F          -1.18773020736076     -4.27820987355972     -4.28880308657386
  H          -0.11146745152274     -5.03414160402532     -2.76825684182797
  H          -1.18456355218324     -2.14139114747469     -2.84189313570112
  H           0.55553565172915     -3.66274286615625     -0.79406135095976
  H          -0.84922093323581     -2.67749475228145     -0.31720204076240
  H           1.62780936826776     -1.69946257138536      1.84335668564985
