15
Coordinates from ORCA-job NEB_product E -31.328107976620
  C           1.39425947834962     -1.37341345876728     -1.55229051895908
  C           1.25686434411005     -1.17643761868434     -0.04690197057699
  F           0.71502741108161     -0.38003769275614     -2.20078647837658
  H           2.44919003740431     -1.29277999553454     -1.84662123383466
  O           2.04284812239517     -2.03904781679462      0.60688467774965
  C           0.85130011585877     -2.76045168183631     -1.95740816813829
  C          -0.64551497706231     -2.79369178996400     -1.89457823546646
  C          -1.31649738944526     -3.37829746711937     -0.92177371551467
  O           0.55047552644721     -0.37995719314256      0.49184792402687
  F           1.28268034051611     -3.03692600028993     -3.23752638126019
  H           1.31161962151657     -3.51598485151453     -1.30811983934189
  H          -1.13904450187461     -2.27369632735428     -2.70207148011650
  H          -0.82055669294575     -3.89580338868158     -0.11631919219596
  H          -2.39127569336322     -3.36056425596274     -0.89088686081022
  H           1.96362425701172     -1.91071046159779      1.56685147281497
