25
Coordinates from ORCA-job NEB_reactant E -47.186611385310
  C           1.77265197640160     -0.28595316572072      0.05360088356323
  C           1.32845969279519     -1.41018045827612      0.63321115535590
  C           2.07337045697104      0.03552267512167     -1.37226443704862
  H           1.92066322566205      0.55463750901243      0.71151699056134
  C           1.08934362848561     -1.43115128048003      2.12313676435881
  C           3.60301017480088     -3.73568620001229     -2.25866984565354
  C           2.93363807792248     -3.30972319340424     -1.19433873695264
  C           1.46377981689450     -3.05894145159823     -1.14407091786128
  O           1.03610211830998     -2.62586170010296      0.12982045049403
  N           5.01653375796568     -3.94877452544126     -2.19572568736393
  H           3.17660729535382     -3.93382643585656     -3.22922553424119
  H           3.48589939159865     -3.12871873968171     -0.27890031982795
  H           0.92766795456111     -4.00245878153238     -1.30086854383224
  H           1.15384328268353     -2.37731694530174     -1.94165416461323
  F           3.10658937819588     -0.69041233633284     -1.89613445340339
  F           1.01725855363050     -0.20968800511192     -2.20675943501263
  H           2.33575096680146      1.09523091927309     -1.49753157282221
  C           2.31918528300640     -1.98408602831316      2.84517311865785
  H           0.23469235708964     -2.07886291139640      2.32019000690157
  H           0.86509395782138     -0.42862301380486      2.48320173093485
  H           2.53167455993472     -2.99662309203530      2.51158196443067
  H           2.14388421726180     -2.00530525546617      3.91732418113908
  H           3.18883830126832     -1.36193189975839      2.64745886510436
  O           5.57993628343629     -3.78004493255007     -1.13578901498523
  O           5.55822529114750     -4.29632075122981     -3.22278344788360
