24
Coordinates from ORCA-job NEB E -32.317082950210
  C           0.47622465733940     -0.35110444386604      0.89807987242187
  C          -0.75739044024402     -0.69654470278689      0.32044576203293
  C           0.48877805101376      0.31708269175620      2.25295004499245
  H           1.27190818998307     -1.08259200446834      0.78670995675939
  C          -0.89648621654511     -1.90164454903378     -0.58756572003885
  C           1.01011299158680      1.08338675596056     -0.28791242353027
  C          -0.08130115644867      1.96433086126876     -0.20588716478257
  C          -1.35164032405638      1.50602491892093     -0.61299467300064
  O          -1.71844463820468      0.17346703678838      0.34619170215546
  O           2.24953257874181      1.47347263588174      0.13741877772155
  H           1.12537579409802      0.48972926647721     -1.18670911493952
  H          -0.03844527224847      2.73472708013713      0.55450435778408
  H          -1.41531236976944      1.02561571947902     -1.58299069128278
  H          -2.19241118168478      2.15672928216414     -0.41278286634569
  H          -0.33999010325733      1.01383102758144      2.34547455006941
  H           1.43006494764485      0.83078927652475      2.43825781524779
  H           0.37572871280462     -0.45061269540496      3.01869932275857
  C           0.04183850167843     -1.92193387761722     -1.79535809266659
  H          -1.93170824031796     -1.93311470992251     -0.93286063674165
  H          -0.71444584920099     -2.79836760115765      0.01142616878802
  H          -0.15036374134899     -1.07697650347046     -2.45261556188152
  H          -0.11809911177943     -2.83506160684362     -2.36470001985865
  H           1.08274944977196     -1.89523056007192     -1.48304998993826
  H           2.15372477044355      2.17399670170313      0.79526862427548
