24
Coordinates from ORCA-job NEB_reactant E -32.347348309180
  C           1.86943064228950     -0.04604673261546     -0.05427972754438
  C           1.40781009519939      0.00710099629931     -1.30183353847637
  C           1.73570202498939      0.97559670458707      1.03544933892843
  H           2.39921277345752     -0.94619110576578      0.22203112118822
  C           1.57348867566550     -1.14904176897726     -2.25791217574822
  C           2.92488736376938      3.13985294829529     -3.34918415249232
  C           2.58714728052377      2.54023072060747     -2.21681775101491
  C           1.16993636304189      2.37068827399115     -1.76244983785390
  O           0.71186493817287      1.03293416047461     -1.90047370505485
  O           4.18239287520887      3.30017996816145     -3.81990001849908
  H           2.19811781975871      3.58874766577951     -4.01083032264024
  H           3.34566927663752      2.08992978476798     -1.58873577402271
  H           0.49644358562416      2.94809010783115     -2.40103227873838
  H           1.06329830918544      2.72167664078658     -0.73013349108453
  H           2.46998642038240      1.77748476988600      0.93217306648096
  H           1.89803025473668      0.50164810472550      2.00085186926140
  H           0.74074319926717      1.41702551688727      1.03894492913899
  C           2.72764549570244     -0.89472333177756     -3.22791158396111
  H           0.64652061496752     -1.25031693964706     -2.82477862327606
  H           1.74881201479582     -2.07092871322597     -1.70351143980253
  H           2.56228442090833      0.03189437795831     -3.77285016793485
  H           2.80821343296480     -1.70905473189748     -3.94404625453784
  H           3.66780157025125     -0.81648633871739     -2.68530147682783
  H           4.81326055249970      2.88080892158530     -3.22056800548789
