24
Coordinates from ORCA-job NEB_product E -32.354031732470
  C           2.62057022829187      0.74448610834670     -0.94052149180817
  C           1.34785669351227      0.06814919225794     -1.42236616668602
  C           2.49543208643063      1.06272591426646      0.55069127656546
  H           3.48454410399887      0.09317730719614     -1.09455545698323
  C           1.52927051721881     -1.28969666105954     -2.06675994088301
  C           2.88383196734033      2.02322399262454     -1.77412122230717
  C           1.85837287852752      3.09058017643074     -1.53007780576689
  C           0.91641681905179      3.41694208738927     -2.39373563427672
  O           0.26326204542268      0.57729942384327     -1.29275548674231
  O           4.18884472440854      2.45903167368800     -1.43085852337023
  H           2.86286907984465      1.74422423233462     -2.84203199023747
  H           1.95043585950387      3.60443435118472     -0.58365189306083
  H           0.81442058699185      2.91229900045306     -3.34050230618760
  H           0.19274882901741      4.18461304522453     -2.18183503804006
  H           1.55811390806475      1.57745724608900      0.74546891041398
  H           3.32881293254089      1.68718590349280      0.86070175846685
  H           2.51181553897891      0.14180018234699      1.12972232979181
  C           2.24732076270960     -1.17654733872735     -3.41182685937371
  H           0.54515148909778     -1.73844517705744     -2.21251607765912
  H           2.11100974365453     -1.92193373860052     -1.39269085327588
  H           1.68108686207982     -0.54049392940495     -4.08832118521737
  H           2.34119931980433     -2.16078318080094     -3.86451215294781
  H           3.24337857034461     -0.75805200749370     -3.29128092949897
  H           4.33343445316368      3.32872219597565     -1.81776326091552
