14
Coordinates from ORCA-job NEB E -18.743940089600
  C           1.17200386592849      0.09272847412257     -0.90485711632045
  C           0.55599689011110      1.27196071533142     -0.51627930044807
  H           0.75409543034569     -0.44614239716076     -1.74181035925607
  H           2.24944399840929      0.03630825497691     -0.83509237170642
  H           1.08912229246950      1.96461628134911      0.14095070663456
  C           0.46413930327456     -1.07167159039702      0.47033133591085
  C          -0.90554217186983     -0.89639956754895      0.33546111630328
  C          -1.42538780452590      0.42042963243460      0.56269969432191
  O          -0.75208719082832      1.34909759935653     -0.53317089126506
  H           0.88593698616062     -2.03004701018752      0.20020137384940
  H           0.95618570174231     -0.61294305490948      1.31751350277638
  H          -1.44025722467089     -1.52514134217128     -0.36265874646906
  H          -1.11997591295682      0.89016722526028      1.49677242299687
  H          -2.48367416358977      0.55703677954359      0.36993863267187
