14
Coordinates from ORCA-job NEB_product E -18.790408245240
  C           1.63047033302758     -1.75617717565130      1.15338806957444
  C           1.19528104058996     -0.34775190148876      0.87298368282479
  H           1.28529812486023     -2.40937518910057      0.35007213548339
  H           2.72478056936363     -1.75925147400484      1.15081842984595
  H           1.28422556527216      0.32396192498895      1.75074864265569
  C           1.12334824634706     -2.23961361190013      2.51669752325954
  C          -0.37339357596596     -2.25966154198834      2.55308024889588
  C          -1.10850434422478     -1.58932155677655      3.41902090884315
  O           0.79562020255673      0.06091988358662     -0.17949336034903
  H           1.50231866667584     -3.25018659137063      2.69205002492034
  H           1.50595325769732     -1.59004616444388      3.30655634727795
  H          -0.84370689484169     -2.87107809632219      1.79412167572848
  H          -0.66427336897955     -0.97239540259679      4.18347643484744
  H          -2.18391782237852     -1.63032310293159      3.40767923619198
