20
Coordinates from ORCA-job NEB_reactant E -32.640416931770
  C           1.57461648410777      0.63996539196884      0.21911239368521
  C           1.25444906132426      0.80843139081610      1.49602013173070
  F           2.11959223686347     -0.49791080835315     -0.27349908460665
  H           1.43810129290352      1.39263580741759     -0.53736041989849
  I           0.41521925001430      2.66907163914559      2.02910226683675
  C           4.33538754845159     -1.17332428405102      3.49465443538573
  C           3.52698515352235     -0.99480704478161      2.46289324682412
  C           2.04543667169968     -1.20765268226416      2.52626712935290
  O           1.32490204706718      0.03175783452855      2.57484304273656
  C           5.81380185547126     -0.96829819800212      3.46228552974557
  H           3.93446445368595     -1.51610491155649      4.44049159109161
  H           3.91643088665844     -0.65295154053153      1.51391574873870
  H           1.76566435988166     -1.70209426352560      3.45915166493508
  H           1.69806913100238     -1.80744367675517      1.67851344105399
  C           6.55385861302517     -2.25742931564749      3.81874210224449
  H           6.07891392815898     -0.19463926013116      4.18857389507270
  H           6.12139885118629     -0.62626221397814      2.47274570519358
  H           6.26930239967375     -2.59976491183907      4.81115567654902
  H           7.62834987154121     -2.09287028635767      3.80549588090917
  H           6.31435590376080     -3.04010866610229      3.10259562241925
