22
Coordinates from ORCA-job NEB_product E -32.776260145200
  C           2.73549314970795     -0.72951795921862     -1.05271359031224
  C           1.45558015947626     -1.29109492923085     -0.45685220381233
  C           2.64349839740424      0.79409387131688     -1.09080116322477
  H           3.59692176769683     -1.03513600285592     -0.45279397467560
  C           1.62772340173993     -2.59144929034113      0.28078302277461
  C           2.93799609916118     -1.36582969386090     -2.46208743484155
  C           2.13857994680061     -0.64338086837119     -3.51400833158863
  C           0.98507442916411     -1.07330854240191     -3.98826083693287
  O           0.39246696929282     -0.73653932820930     -0.57300740782967
  N           4.36731994960401     -1.41314383388431     -2.72972691147407
  H           2.59295502058072     -2.40713925142393     -2.41353597201364
  H           2.58738969652244      0.26776832933291     -3.88893241804968
  H           0.52575614034913     -1.97868299814039     -3.62651098269019
  H           0.44405655320375     -0.53465761666609     -4.74734000884272
  F           3.74615754749435      1.35046468298906     -1.69374173292635
  H           2.60275488051757      1.20112363433289     -0.07545790203511
  H           1.76448376043041      1.11822039078311     -1.65432944693923
  H           2.34428239238904     -3.23587722109145     -0.22020854865071
  H           0.67080594970331     -3.09506778715527      0.38846301487601
  H           2.01359367566089     -2.36667213808458      1.27448988787630
  H           4.74703844680418     -0.47244671878221     -2.76278635608184
  H           4.53977166629626     -1.84952672903680     -3.62874070260575
