22
Coordinates from ORCA-job NEB_reactant E -32.768798455850
  C           1.85702994365934     -0.12329136020163     -0.01735485652108
  C           1.55357719414448     -1.37503985727664     -0.35990840052206
  C           1.91841701918719      1.14381317009634     -0.81599269035639
  H           2.08299856402357      0.04913342678749      1.02420709255788
  C           1.52132206171122     -2.46698702551671      0.67617463649714
  C           3.39636059826605     -1.79872311329443     -4.24758772297507
  C           2.91187097765146     -1.24690278179389     -3.13763587346678
  C           1.45649092507211     -1.24049142124026     -2.78661715004469
  O           1.19462662908506     -1.90649971315437     -1.56102694593745
  N           4.71416416313237     -1.74224711663260     -4.64903354651183
  H           2.73323688139953     -2.25944887778720     -4.96766098004344
  H           3.58299754306907     -0.80165185260725     -2.41669143070278
  H           0.89324461685605     -1.81356751524521     -3.52858760203361
  H           1.05245318376890     -0.22082075583870     -2.75914528665983
  F           2.50380429899370      2.12910268870729     -0.04867704894709
  H           0.91917704561553      1.52357830945833     -1.07074557839367
  H           2.52837959336389      1.07348342791532     -1.72326325424148
  H           2.29494464850137     -3.20106603861219      0.45715455257840
  H           0.56102419465450     -2.97617769601635      0.63100918585949
  H           1.67417734163902     -2.07034606340308      1.67365925044641
  H           5.37210846248111     -1.48842067409536     -3.92744287347517
  H           5.03119411372445     -2.49052916024888     -5.24363347710692
