17
Coordinates from ORCA-job NEB_product E -30.224877867290
  C           2.80026594854296     -0.50459365097049      2.06208169720273
  C           1.38576210338446     -0.28893099513896      1.49656170753508
  F           3.72792362104723     -0.26787531774641      1.08064661289948
  H           3.01669655387850      0.19945994384062      2.87465662858433
  C           0.41036445169727      0.25566905616515      2.50192000921998
  C           2.90786329963357     -1.95518463359156      2.55194419802908
  C           2.89869002055171     -2.92884181962368      1.42312415419257
  C           2.06957501615892     -3.95342767867181      1.35660644816170
  O           1.11243055281567     -0.54607072622489      0.35900680614406
  Cl          4.44630483953604     -2.14744012318701      3.48016940815533
  H           2.10444015960822     -2.15913720346394      3.26398735101363
  H           3.62953269182105     -2.74096308397179      0.65055980071214
  H           1.33766638226812     -4.14784947509339      2.12386211366534
  H           2.08876995260285     -4.63768446094065      0.52726471635907
  H           0.53727420967139     -0.22130431846263      3.47012404136121
  H          -0.60660305548771      0.12244730169618      2.14354681170144
  H           0.60034325226976      1.32152718538527      2.62263749506283
