17
Coordinates from ORCA-job NEB_reactant E -30.222032420700
  C           2.58085355795417     -0.19893887901310      1.13958318816760
  C           1.46311281014352     -0.68192201976864      1.67230623845528
  F           3.54792511265679     -0.93248184830542      0.53259003832434
  H           2.82734134276915      0.84913612449898      1.14510328045424
  C           0.47094353098420      0.24571274926664      2.31137139631369
  C           3.26438440867584     -2.81222525564125      3.24869441610966
  C           3.04527768975744     -3.31598992021715      2.04769231076816
  C           1.82838824628977     -3.00886831823813      1.22330674178388
  O           1.02211606442475     -1.96841853595269      1.73174109332052
  Cl          4.66692663764470     -3.18288364711646      4.16885759383617
  H           2.58823935821548     -2.13616437123216      3.74819356391013
  H           3.75082907023802     -3.98905481790276      1.58542312640609
  H           1.17013690251282     -3.88575146609743      1.21264444639101
  H           2.13179369434550     -2.80164162303975      0.18987434954508
  H           0.32250187277684     -0.03822790952097      3.35119589628211
  H          -0.48778398328989      0.15607827527530      1.80488826068261
  H           0.81091368390089      1.27404146300500      2.26263405924944
