26
Coordinates from ORCA-job NEB E -35.634874567180
  C          -0.74758038360262     -0.43245647263989     -0.52624128215458
  C          -0.90563975833069      0.95393891298151     -0.36168643556028
  F          -1.54731611227247     -1.25765980119118      0.19630371084246
  H          -0.63646784670062     -0.83614712161601     -1.53046430426856
  C          -0.41013548163217      1.88807471817888     -1.43924162448572
  C           0.92493400229634     -0.68298338086982      0.34268699441319
  C           0.61603803569002     -0.21413238394232      1.62752177575498
  C           0.27667554103027      1.15822095903224      1.76638386352050
  O          -1.05201297343053      1.40772540544919      0.85029730472244
  C           1.35019433576505     -2.11952243689388      0.10396518346977
  H           1.50273980459704      0.00050959836545     -0.27891084266119
  H           0.20793258584141     -0.90610156719861      2.34690753250373
  H           0.95815716318603      1.87280677113106      1.30881036503977
  H          -0.06438267929105      1.47830523948164      2.74295768301936
  C          -1.55065456566258      2.78059267907079     -1.93218815653675
  H           0.00161307420924      1.31581633940207     -2.27204458938964
  H           0.37802463840578      2.52347439618953     -1.02276011702857
  H          -2.33333627969862      2.17704595143312     -2.38527443519615
  H          -1.18617168987382      3.49176256141455     -2.66964577679314
  H          -1.97824006463937      3.32811886717006     -1.09633084506183
  C           0.76817005662691     -3.14839021708943      1.06587799410852
  H           2.44240260433811     -2.14335424697207      0.17849498372820
  H           1.09834292542094     -2.40071078278624     -0.92144570985948
  H           1.13971977510332     -2.98782093553439      2.07459053341982
  H           1.06326002159894     -4.14724310063052      0.75192448655109
  H          -0.31626672897486     -3.09986995193573      1.07951170790207
