21
Coordinates from ORCA-job NEB E -41.250271960350
  C           0.01148119739248     -0.06253448265674     -0.74775023851378
  C          -0.09584633239294      1.37240275573332     -0.68937849237460
  O           1.31370580354036     -0.59826692080895     -0.70825706100247
  H          -0.56679154586317     -0.50337316243268     -1.56837705757600
  H          -0.96196032267150      1.84497459383512     -1.15287311086182
  C          -0.59087637949312     -0.63131861706060      0.75138857617668
  C          -0.45614438072736      0.37185487751353      1.78669270241334
  C           0.71475292271306      1.17355703545755      1.63342102569944
  O           0.41951707583999      1.99296042082796      0.31646620396586
  C          -1.99110019875437     -1.18649028038913      0.59351832915504
  H           0.12464738944533     -1.44989525941313      0.87270118067750
  H          -1.35669086424125      0.88346155482384      2.10064125511113
  H           1.62669977835769      0.62108670470992      1.41353990078422
  H           0.86734339962720      1.96625136634761      2.35679415825410
  C           2.02091837019793     -0.41241391647953     -1.91215671779980
  H           2.98382611855529     -0.89960786350087     -1.77424397130004
  H           2.17149508127751      0.65079557418669     -2.12837532330111
  H           1.49233118837594     -0.87510671827783     -2.75364829537925
  Cl         -2.04129147760202     -2.51161994532035     -0.59076937875781
  Cl         -2.57299061735720     -1.82837209623051      2.14662817994218
  Cl         -3.11302620621986      0.08165437913477      0.05403813468720
