21
Coordinates from ORCA-job NEB_reactant E -41.291081019070
  C           1.02437439091623     -0.29787603893105     -0.25146806275656
  C           0.68025632537124     -0.01584418455612      1.00205885196440
  O           1.87586079717493     -1.30650186706407     -0.58688869320165
  H           0.62211032720025      0.29832319592685     -1.06090220638923
  H          -0.02166301413122      0.78519909032300      1.20236669622724
  C          -1.26576102555653     -2.40657837228182      3.99091590212806
  C          -0.80618324342726     -1.59860790469700      3.04887574192747
  C           0.37314888954450     -0.68810966100152      3.22571443595370
  O           1.20175594881890     -0.66269082360123      2.09233776144686
  C          -2.43982096141396     -3.30659998627404      3.86255502263294
  H          -0.79980794041629     -2.45221628505836      4.96569430089231
  H          -1.26559136943434     -1.56016719244150      2.07065646631018
  H           1.00337450003338     -1.01964293168858      4.05383346823831
  H           0.00044469903001      0.32729510472738      3.44814546608071
  C           2.25475597414180     -1.34735976620556     -1.93959007995509
  H           2.88952864407822     -2.22412338015455     -2.05326633777097
  H           2.81971140755509     -0.45280943472167     -2.22489663545209
  H           1.38355124079031     -1.44305722638045     -2.59773891801302
  Cl         -1.94236580899853     -4.98911226888729      4.21166244118090
  Cl         -3.67520288905551     -2.83800979016907      5.07401718018756
  Cl         -3.19747689222120     -3.27451027686337      2.26741719836799
