21
Coordinates from ORCA-job NEB_product E -41.293692633750
  C           0.26308990650728     -1.35767459199618      0.89568616491564
  C           0.73719746630288      0.09199843550831      0.88783767362957
  O           1.30132504975800     -2.27238464558635      0.66775133940016
  H          -0.51762779193523     -1.44550315633119      0.11859740677839
  H          -0.09972470353715      0.81667017875448      0.87906425054858
  C          -0.33637330654978     -1.68932449431736      2.28572512328074
  C          -0.92642742359909     -0.48750333142270      2.97188324441592
  C          -0.40578276835595      0.05785716148093      4.05433637829879
  O           1.87822215166472      0.44256062117790      0.86761974897697
  C          -1.38719165398022     -2.79659863527559      2.18985070409930
  H           0.49737134667793     -2.07917688822212      2.87981463907347
  H          -1.83133887407919     -0.09488428503041      2.52993842493552
  H           0.49056849702943     -0.32687247716489      4.51113690234657
  H          -0.85287259193611      0.91661737763755      4.52347127813578
  C           1.75777369654234     -2.31883193138192     -0.66504747450201
  H           2.50308980687747     -3.11012111086972     -0.69568795217195
  H           2.21700518756898     -1.37431672690529     -0.96982670903069
  H           0.93724180729091     -2.56119320421701     -1.35158780874336
  Cl         -0.72233403818368     -4.28284776783720      1.49328400611618
  Cl         -1.99599915268387     -3.16488930767979      3.82263749474844
  Cl         -2.77101261137968     -2.28828122032146      1.19331516474799
