26
Coordinates from ORCA-job NEB E -52.540160830640
  C           0.49361759879487      0.10427245085689      0.59305554579460
  C          -0.83174400907766     -0.36893081588682      0.43635104276235
  C           0.81598211374161      1.02307110521700      1.74240484480210
  H           1.25487888901441     -0.67343537145217      0.57208316567642
  C          -1.06737793810348     -1.80488328113143      0.05472256127925
  C           0.73382990857828      1.23902305914760     -0.92563784296126
  C          -0.52041264527803      1.45594488024803     -1.52441155848684
  C          -1.58050853451677      1.76722716069737     -0.60116914161363
  O          -1.80809505351447      0.45803163196834      0.21691551921712
  C           1.77405289719069      0.55291905500429     -1.78179247359484
  H           1.16363419218026      2.07655835975747     -0.38512073418789
  H          -0.78789732950367      0.80187096294214     -2.34648185676350
  H          -2.56234617267341      1.91595025814730     -1.03954481057881
  H          -1.35129900986258      2.53857079630962      0.13003344011019
  F           2.06246201473544      1.51621787344428      1.67854595580790
  F           0.00648077088320      2.07877398501252      1.89243581231585
  F           0.75019400857931      0.34213019009652      2.90388987762117
  C          -0.62606294669523     -2.78344107795583      1.14088549364692
  H          -0.51573622687545     -2.01040942840482     -0.86888694956967
  H          -2.13194975352030     -1.92643606540746     -0.14867938008447
  H           0.44350038542454     -2.71890654668754      1.32084326657125
  H          -0.85917086564863     -3.79984217656421      0.83567517181068
  H          -1.14430402693829     -2.57468697232192      2.07328747311405
  F           2.91655396616141      0.32350368944335     -1.09483357444022
  F           1.33821001301274     -0.66666254916120     -2.19322947670726
  H           2.03350775391121      1.13356882668065     -2.68134137154146
