26
Coordinates from ORCA-job NEB_reactant E -52.580267265040
  C           1.39996360400525     -0.10977097757997     -0.38892365948436
  C           1.43262689278964     -0.69227168512376     -1.59746088211570
  C           1.89951975613469      1.20647835246946      0.08205575487455
  H           0.94033470573626     -0.66684164490010      0.41131645297129
  C           0.86906419917995     -2.08450206551304     -1.75055964871302
  C           4.20860244623018      1.53000058369761     -4.74647484220631
  C           3.04847384201619      1.02776852564206     -4.36070401381569
  C           2.59620456181636      0.96095830280795     -2.93749259761769
  O           1.92447134591667     -0.28032252498416     -2.76819016753034
  C           4.63694530362084      1.62165890956712     -6.17956615352700
  H           4.92306217105321      1.94364409510436     -4.05011076233642
  H           2.35026407225110      0.62629488885738     -5.08155761507145
  H           1.90236794778132      1.79074970384318     -2.74930135114217
  H           3.45007453352623      1.04149846648674     -2.25886445588662
  F           3.24284978888099      1.36579640311535     -0.00925661288376
  F           1.37420375444640      2.27505949707739     -0.56081060318546
  F           1.60584251026417      1.38374920230386      1.37786534111348
  C           1.94779164671313     -3.12740442546077     -1.45587047936851
  H           0.52610450206962     -2.20061537002164     -2.77863230880403
  H           0.02541793565219     -2.22206916710894     -1.07615487331449
  H           2.78867715484909     -3.00228465607037     -2.13298802050508
  H           1.54368954707859     -4.12755707422284     -1.58636817183068
  H           2.30594650327471     -3.02660044261291     -0.43449963004166
  F           3.68102768361204      1.18748059387972     -7.03282404163475
  F           4.89404865050446      2.91237313598382     -6.52124217406050
  H           5.55562494059674      1.04472937276250     -6.38568448388367
