17
Coordinates from ORCA-job NEB E -41.478051984040
  C           1.01165846531893      0.38765579392334     -0.34984724347130
  C           0.07492760364682      1.42928819712545     -0.34437008900574
  C           0.98925068713270     -0.51159869540311     -1.57087631999991
  H           2.03706031282328      0.63000561715202     -0.08305065710195
  Br          0.53828536507557      2.96352982634579      0.76385244058663
  C           0.30430839770833     -0.63836663771583      1.14915284916093
  C          -1.03921046461663     -0.80837283719811      0.82040471565966
  C          -1.84046376183725      0.36105905097890      0.67575074327471
  O          -1.16232837008758      1.22244548650756     -0.53209988982924
  I           1.50136211010085     -2.36555008908895      1.44952067392932
  H           0.56660914140125      0.11012737632443      1.88877352802034
  H          -1.35953000450832     -1.71568060145999      0.33174274875696
  H          -1.78312120850657      1.09698250956180      1.47631037957557
  H          -2.85037113082645      0.20826678975621      0.31581151783859
  F           2.00442248794153     -1.37953689689167     -1.56990675766533
  F          -0.12919217981707     -1.21891832231554     -1.73750130577305
  F           1.13633254905060      0.22866343239771     -2.68366733395618
