17
Coordinates from ORCA-job NEB_reactant E -41.509576296110
  C           1.67041783119749     -0.02852088188437     -0.09339083296154
  C           0.96153733340618     -0.06572129272887      1.03953584958800
  C           2.18210160661529     -1.28797584467779     -0.70943532717885
  H           1.90262889413980      0.88974301740998     -0.59982271479457
  Br          0.33620523239859      1.57800483202747      1.77054269386862
  C          -0.00990951513289     -3.09062048188672      4.46182724101143
  C          -0.26502185728306     -2.65319975863510      3.24402181602595
  C          -0.10709668661273     -1.21824919346674      2.84896338369979
  O           0.68522549841523     -1.19070402287237      1.66795834117182
  I          -0.26839104850170     -5.08806896200548      5.03619491555310
  H           0.32746268488953     -2.45419465042073      5.26317157772525
  H          -0.59172761992803     -3.31203096090615      2.45349350393046
  H           0.37741674173600     -0.63967711482811      3.64512711084925
  H          -1.09409430982295     -0.78055166011201      2.63997096100066
  F           3.05221765008534     -1.94325812051096      0.08100065362554
  F           1.20506221491817     -2.16972986630512     -0.98969027124371
  F           2.81946534947974     -1.04504503819694     -1.85986890187119
