26
Coordinates from ORCA-job NEB E -31.388228796810
  C           0.09909872138646     -1.20095715208329      0.33689918327612
  C          -1.25466572884487     -1.75493211279629      0.25618479804241
  C           0.44145748413071     -0.52862570022365      1.67566310942279
  H           0.86039026905249     -1.96441781391262      0.14556515095123
  C          -2.15597547917870     -2.07397094189208      1.38682700051695
  C          -0.00042986567622      1.16670521649655     -0.75902602390481
  C           0.16335243326702     -0.25026321556736     -0.96710609850477
  C          -0.99723218459877     -0.85371183134010     -1.81322011736636
  O          -1.80799783869846     -1.63624994251571     -0.96921784939555
  C           1.02790262616294      2.18126387205295     -1.11762893146176
  H          -0.86599520991908      1.54973461387884     -0.24129198216616
  H           1.11423094668036     -0.44547319624555     -1.47031315233401
  H          -0.61633624788900     -1.45911108113231     -2.63869398384759
  H          -1.63935119808669     -0.06684180566606     -2.22639453483301
  H          -0.44806621346532     -0.22416503758097      2.21880946954002
  H           1.04247130176056      0.35238339150431      1.48970121064260
  H           0.98773661919360     -1.21652702368608      2.31739586359578
  H          -1.63216732466068     -2.63489572602691      2.15698877652595
  H          -2.99405921961770     -2.65468585329855      1.00755573351811
  H          -2.57504586851930     -1.18145981949004      1.86733724674422
  C           2.09492950201699      2.42532244658337     -0.02670355988021
  H           0.52786328494710      3.13306233539926     -1.31393174947100
  H           1.56406066027900      1.88256952809848     -2.02407380678568
  H           1.62553935366616      2.78528548302440      0.88606201291092
  H           2.81098398456807      3.16806805970479     -0.36827848804884
  H           2.62730519204334      1.50189330671463      0.19089072231259
