26
Coordinates from ORCA-job NEB_product E -31.459394977890
  C           2.54298426754356      0.85870366822735     -1.02967418612282
  C           1.44896248249532     -0.20064263706807     -1.13103688444942
  C           2.24826498510462      1.72239941642654      0.19772960059116
  H           3.50926053912792      0.35992122417979     -0.91423371911014
  C           1.94386962319654     -1.61002343889335     -1.34278013431489
  C           2.56420730321832      1.70660891555597     -2.33281371836930
  C           1.91051270518067      0.97193021437854     -3.46980136899249
  C           0.78331333393183      1.34077378870588     -4.04669263295853
  O           0.28014320636612      0.06238222650343     -1.01195983686597
  C           3.99195254536498      2.07400734892901     -2.76574960179530
  H           1.99827906215420      2.62422814451465     -2.14937750958632
  H           2.44429153565553      0.10097298745354     -3.82936313428143
  H           0.35330590142059      0.78909916510745     -4.86521346787969
  H           0.23218458288025      2.20366387568463     -3.71207721009694
  H           1.22727691789479      2.09251834732321      0.13998854166692
  H           2.92676312842662      2.56709153995116      0.26147526309135
  H           2.34418924217189      1.12959587346897      1.10596917994657
  H           2.68883181900775     -1.64572745863858     -2.13285364606742
  H           1.11447459950347     -2.27052788496795     -1.58107133604967
  H           2.41356658414335     -1.94961043171358     -0.42021249741312
  C           4.73767006756232      2.97590886321816     -1.79043849575326
  H           3.92256694505895      2.58196879880722     -3.73128260472079
  H           4.56612633469348      1.15660618037398     -2.92030212124870
  H           4.16299744683558      3.87646168827142     -1.58570650014117
  H           5.69318603113470      3.27270629475116     -2.21799036288447
  H           4.93481880992666      2.46448328944946     -0.85193161619415
