23
Coordinates from ORCA-job NEB_product E -38.993695422370
  C           1.82627295008076      1.61187782011950      1.28979682004646
  C           0.35826011176533      1.90860868732118      1.05472952414811
  C           1.91588154287324      0.07019335391792      1.26082696095623
  H           2.41555217827531      2.00002572561906      0.45331688652860
  H           0.07283740721225      1.91491482472602     -0.01273457862388
  C           2.27226514836160      2.25071043875390      2.62271122464941
  C           3.31654349826317      1.48190707103910      3.37901978757729
  C           3.05858266139002      0.80821405785381      4.48431749527620
  O          -0.45505251217714      2.04531938153341      1.92304551047368
  C           2.76600770693774      3.67182800320694      2.39234143719806
  H           1.37177037349902      2.31782659524224      3.25243825618819
  H           4.32085658824616      1.51732315824159      2.97903103994667
  H           2.06916737376227      0.76653214383480      4.91000221523988
  H           3.82858170995694      0.26849645220873      5.00690499707462
  C           3.26384087139189     -0.43938417585308      0.76743201324785
  H           1.13762537394821     -0.30444218833969      0.58962403665514
  H           1.70320447337984     -0.31883088072499      2.25730620817404
  H           3.47237770999114     -0.06652576199291     -0.23271220417106
  H           3.25280916209789     -1.52574831030607      0.73146285651650
  H           4.06952282883489     -0.12986616996317      1.42562027149124
  Br          3.17041641827356      4.53040676243286      4.10025443826841
  Br          4.39481422872082      3.71591926005515      1.31132813560008
  Br          1.44036219491511      4.77659375107367      1.46383666753825
