23
Coordinates from ORCA-job NEB_reactant E -38.984427032050
  C           2.81282041016414      0.07030109817740      0.29921640201815
  C           3.45085832501149      0.73884802599142      1.24868256563521
  C           1.56080233140809     -0.71964239651049      0.51134568691292
  H           3.23436709173877      0.06209124244166     -0.69423661780032
  H           4.36314389701557      1.29196897174018      1.04472843210046
  C           2.45623629914967      4.00887604532524      3.87935713662661
  C           2.84748585800469      3.11684030632545      2.98394770784621
  C           3.51221050129567      1.81819796396517      3.33346288714608
  O           3.03140195940022      0.75698285969885      2.55441347583568
  C           1.81602603335795      5.30959961489452      3.59272973888913
  H           2.60487784322153      3.83391033296290      4.93854547579021
  H           2.69651376811213      3.27234232091228      1.92305560429614
  H           3.31904848426100      1.54660779139345      4.37444992389474
  H           4.60101370142441      1.93672209511389      3.19643531294106
  C           1.79777177992357     -2.20815251412482      0.25833688876110
  H           0.78990001110709     -0.36033940262329     -0.17653832391815
  H           1.21206080559482     -0.57010905655136      1.53329312992043
  H           2.14737888578029     -2.37141766026022     -0.75899024213195
  H           0.87676761982074     -2.76824081629499      0.40145531537660
  H           2.54767265596532     -2.59210990491213      0.94597653127143
  Br          0.08111668274119      5.41176871673170      4.52730711715780
  Br          2.95848469178689      6.76494709703163      4.29623206015717
  Br          1.49914036371477      5.66960726857155      1.71439379127327
