22
Coordinates from ORCA-job NEB_reactant E -48.255215876890
  C           1.86143848527929     -0.01572140439625     -0.24530739186862
  C           1.50820054026016     -1.15539881170861     -0.85625397567817
  C           1.89922487409145      1.38903652160933     -0.72739145892123
  H           2.15552283921975     -0.08201677755252      0.78926529015111
  C           1.53255124370007     -2.44598311903524     -0.08858489575159
  C           2.93001062519887      0.57947650850418     -4.59911992344944
  C           2.55294548902878     -0.31350103383473     -3.69320487616267
  C           1.16352044463646     -0.47677815901880     -3.17168140139541
  O           1.09114072159910     -1.40616710548765     -2.10922040635234
  N           4.29063184733375      0.63577335216674     -5.04840624366064
  H           2.29180189448732      1.32119235543285     -5.05268307379661
  H           3.29720557227615     -0.99853130414663     -3.30289947431868
  H           0.54233463248393     -0.92765618599561     -3.95578760999390
  H           0.71443350517597      0.48691965728677     -2.91714658012764
  F           2.76887500468952      1.62263332324921     -1.73765897694137
  F           0.70709191012877      1.85139124841753     -1.17887724076551
  F           2.25738306995223      2.21579561414849      0.26114964179410
  H           2.37318033481312     -3.05003689251632     -0.42546400695054
  H           0.62212124474998     -3.00199211236523     -0.29777945605936
  H           1.62124986384738     -2.27494197631477      0.97762598545143
  O           5.07678331647515     -0.17142978616289     -4.60404141299043
  O           4.55675254057282      1.49603608772014     -5.85773251221249
