22
Coordinates from ORCA-job NEB_product E -48.262977394070
  C           2.66861836403925     -0.52985794065845     -1.86271533542033
  C           1.60345317678987     -1.60809152481943     -1.55524061969424
  C           2.63125287090493      0.64550783955294     -0.88968705866681
  H           3.65552603667967     -1.00397631525986     -1.73688176688648
  C           1.41647389443974     -1.94900080263207     -0.11299086891329
  C           2.55817514796108     -0.06651439044371     -3.32498872963599
  C           1.56463727763866      1.03591125786212     -3.55796660384716
  C           0.31846646079908      0.80486236786137     -3.92410049005984
  O           1.00891992693050     -2.13913445404705     -2.45174444835997
  N           3.90603331460639      0.32552198662757     -3.85156111310366
  H           2.25709232574684     -0.94990002073915     -3.90785227113700
  H           1.92870581251676      2.04120682853482     -3.40172790299860
  H          -0.05108976259567     -0.19455586166522     -4.08442201540717
  H          -0.38172399660305      1.60873386080510     -4.06316804150208
  F           3.36857189415871      1.67382346744532     -1.32360475702264
  F           1.39420948832340      1.11949686107097     -0.68111154315457
  F           3.11738273905566      0.31759782124469      0.31568358972297
  H           2.37124816292971     -2.09454630379776      0.38618240088123
  H           0.81012551751418     -2.84745041093634     -0.03161380091457
  H           0.89720639149493     -1.13325068082523      0.38898446262623
  O           4.86791742080566     -0.21730977034598     -3.36523233591364
  O           3.92349753586370      1.12472618516537     -4.74684075059237
