14
Coordinates from ORCA-job NEB_product E -30.549443137810
  C           1.56003339117805     -2.08358203469523     -0.20827079070073
  C           1.04957852976455     -0.84970540616206     -0.92083965936285
  F           2.75357251313615     -2.44177608535828     -0.77455859222030
  H           1.76525505576618     -1.82939172910743      0.84392144276137
  F           0.09264549969763     -0.25022660351760     -0.15585427548326
  C           0.59618978308282     -3.27424783761954     -0.25548268198661
  C          -0.60157904911896     -3.10197637560876      0.61018085783933
  C          -0.94324619977112     -3.97678485730395      1.53943634634573
  O           1.36293719558383     -0.38921646342755     -1.95142663419921
  I          -0.03743052877261     -3.66191523976163     -2.31463216190901
  H           1.16172320028257     -4.16292753199308      0.03107465216143
  H          -1.20477420113477     -2.22407351504305      0.42817615019294
  H          -0.36480882804158     -4.86675271592362      1.72691011629277
  H          -1.81849636165275     -3.83552360447823      2.14816523026840
