14
Coordinates from ORCA-job NEB_reactant E -30.530941583800
  C           2.04171238965441      0.00172353834931      0.11614298100825
  C           1.29122594801235     -1.00159997245640      0.55909131723394
  F           2.28826054421834      0.17141037599296     -1.19256681190173
  H           2.49836800636256      0.73496803674838      0.75705580981772
  F           1.09162685474850     -1.09739361121009      1.88997459452824
  C          -0.59853192094580     -5.14102699411074     -0.48244205200881
  C          -0.64584074418260     -3.82648396860940     -0.57144141915058
  C          -0.08400985748412     -2.92031325643723      0.47771241007564
  O           0.70725888750050     -1.93929596637057     -0.18603934870119
  I          -1.42626515750511     -6.41543869487631     -1.92752630749465
  H          -0.15409827186562     -5.66666970366345      0.34620379113437
  H          -1.08835315822279     -3.32487323749952     -1.41891591217053
  H           0.52445710437038     -3.47762409033941      1.20043997998164
  H          -0.90511062466099     -2.42698245551752      1.01861096764770
