21
Coordinates from ORCA-job NEB E -48.459442496580
  C           0.88938154149850     -0.35584156499552      0.15436545611442
  C          -0.08241712108750     -1.16684925375851     -0.64033994558782
  C           0.73478283282269     -0.56291941711121      1.65983446983091
  H           1.91233311185120     -0.64589737764142     -0.10178440208530
  N           0.37888103746819     -2.17075527767446     -1.49619675945938
  C           0.54819910918220      1.09374959074769     -0.30028090388669
  C          -0.83515737049761      0.98149728371213     -0.85019580350763
  C          -1.89356687954239      0.06630582612259     -0.35216439921108
  O          -1.38510241200263     -1.23727910604034     -0.27287620873735
  N           0.67187896369007      2.12176942369179      0.69577018010124
  H           1.24527377473933      1.32517971937079     -1.11101395885572
  H          -1.21511479972957      1.89451272895826     -1.29729064326888
  H          -2.70993808159897      0.02061713160441     -1.08345826383065
  H          -2.33817208961574      0.39921888241947      0.59906154525211
  F           1.71835971350281      0.03456365252358      2.33864889986299
  F          -0.41540914098416     -0.07293978222929      2.15275605942405
  F           0.76728967936638     -1.85704902348306      1.98727657508811
  O          -0.44470534429667     -2.90847473555651     -2.00983267779305
  O           1.58627777486855     -2.19680324631486     -1.72344146404916
  H           1.00213404308192      3.01140022162605      0.35731649512884
  H          -0.13520834271659      2.22599432402842      1.29384574947005
