21
Coordinates from ORCA-job NEB_product E -48.499568623530
  C           2.16381962563051      1.80794189404608     -0.66566683980078
  C           1.47336631924866      0.67456571138849     -1.34176752442534
  C           1.98349170321624      1.72280579624148      0.84850293915133
  H           3.23986129319252      1.77773209970338     -0.87768577947839
  N           2.24968708136282      0.18140845921688     -2.60015378568851
  C           1.62256570672160      3.15556711794726     -1.29182899818419
  C           0.27245340120393      3.49751544162444     -0.71949591908652
  C          -0.86760251947117      3.23425947560745     -1.32957631684880
  O           0.43038258008847      0.16281827455734     -1.12185542181267
  N           2.64739682193768      4.15369956995958     -1.11855578044856
  H           1.52410615398775      2.97604666954047     -2.36991392935193
  H           0.28838648626873      3.99531612367805      0.24077404887763
  H          -0.90351266263791      2.73827922342337     -2.28567738965328
  H          -1.81405054820456      3.49930720767070     -0.89309804250541
  F           2.45884387098731      2.80788710625205      1.47508180834933
  F           0.71985654317222      1.57961947031822      1.24664501598270
  F           2.66324412996454      0.67501140993915      1.33672311463086
  O           1.62115161379623     -0.52832252031575     -3.33317084101681
  O           3.39062479305507      0.54918008566384     -2.72715423142431
  H           2.69983764526328      4.48731822127160     -0.16364161728075
  H           2.51028996121608      4.93984316226590     -1.73858450998559
