21
Coordinates from ORCA-job NEB_reactant E -48.509491783280
  C           2.02078475058506      0.34448709097390     -0.00128969806487
  C           1.62487522685957      0.68572354109127     -1.23481884163250
  C           1.40573420633898      0.70587226612691      1.30609918522119
  H           2.86916158576561     -0.31999300730999      0.08024761432678
  N           2.42684205698672      0.07983971643261     -2.35234832823126
  C           1.24724083115436      4.53794586674028     -1.97532255043218
  C           1.03253855103778      3.68834559324715     -0.96537062607588
  C           0.07317254182274      2.55538321220983     -1.08111677964107
  O           0.68080149064685      1.42275377471594     -1.75825123009273
  N           2.19757972545181      5.51631782139252     -1.98727340381095
  H           0.68199482410134      4.44614118283654     -2.89305906353708
  H           1.61204883027762      3.76070845289602     -0.05838783910324
  H          -0.75687901224209      2.80184956018814     -1.74553171794981
  H          -0.32019158702037      2.24878105305181     -0.11194452279502
  F           1.56891895224902      2.00055707207148      1.64815387586333
  F           0.07832492493004      0.48123012546682      1.35639323749196
  F           1.94599914065454     -0.00841576001647      2.29804254783899
  O           2.20564269598152      0.50303652583869     -3.45287502668071
  O           3.22380052429906     -0.77580420885383     -2.06143069633659
  H           2.64171213679461      5.73218255030401     -1.10946450771495
  H           2.07519760332523      6.29045757059636     -2.61625162864339
