17
Coordinates from ORCA-job NEB_reactant E -38.671307284170
  C           1.73738760633455      0.13355714092523     -0.14032317988396
  C           1.63686931231310      0.63296126100970     -1.36471397372766
  H           2.17451681658628      0.68080652025308      0.67294867929655
  H           1.37374002164576     -0.85308343456265      0.07383885384512
  C           1.02293651160209     -0.16126354956371     -2.50261030653076
  C           2.74150377850026      4.24226867412120     -2.90701406064763
  C           2.99136056850401      4.00960436488037     -1.63002000412094
  C           2.63648101999851      2.73367822512935     -0.93101250793826
  O           2.02686204806121      1.83760013880941     -1.83854705721956
  Cl          3.16253182930714      5.71692150017719     -3.66982768741396
  H           2.25975648263782      3.52755415485115     -3.55442011541596
  H           3.47550987012861      4.74600210079104     -1.00612584505136
  H           1.94881726425428      2.94999430795077     -0.09976991117186
  H           3.54645839409902      2.27911059032576     -0.51167002630104
  F           0.02103257071468      0.50253265186149     -3.09351775811490
  F           1.92102603386807     -0.43331193977487     -3.46066940843515
  F           0.52380987144461     -1.33563270718454     -2.10084569116867
