17
Coordinates from ORCA-job NEB_product E -38.673991516360
  C           2.07950304763903      1.33944861818306     -1.83927016676646
  C           0.91549543463248      0.92921378252770     -2.69180597025066
  H           1.91495192415283      0.92078326074554     -0.83941694446902
  H           2.99608326666396      0.89216622636467     -2.23363508185526
  C           0.94975065073902     -0.59617679119548     -3.03013366241355
  C           2.21962768534006      2.85634737055616     -1.74217424889572
  C           3.19625472341540      3.27202940196178     -0.69537711278885
  C           2.93336691102822      4.17347091748308      0.23286107832141
  O           0.02242908690227      1.61722891566553     -3.08010467499663
  Cl          2.81340795578097      3.46163758321730     -3.33979351010517
  H           1.24338358807511      3.32196958082297     -1.58945065807120
  H           4.16737563549283      2.80131172202029     -0.75718962664845
  H           1.97446830810038      4.66050928043075      0.29631778935544
  H           3.66677785136074      4.45995623851037      0.96594097738414
  F          -0.10699849465522     -0.99288393417340     -3.72846783585142
  F           2.04857522041024     -0.91187751278750     -3.73111033490344
  F           0.99044720492168     -1.32703466033283     -1.90159001704515
