20
Coordinates from ORCA-job NEB_product E -45.684695912290
  C           1.11424757657904     -1.27116913722174      0.17858534774267
  C           2.16640887906961     -2.32359124477174     -0.16702893431587
  C           1.65925255566818      0.15253754906931      0.08343951071905
  H           0.35533700195018     -1.37034894149150     -0.60860282599163
  C           3.46729560300005     -2.36875702251907      0.66640371417357
  C           0.42573837439068     -1.54725440081188      1.53213326558860
  C          -0.12385894734371     -2.94187502848498      1.56582636639913
  C          -1.41230092132717     -3.22260835373302      1.56142358869770
  O           2.01562523904664     -3.08973720747083     -1.07157205336883
  H           1.13653633792369     -1.41325901407384      2.34768821952827
  H          -0.38336594766573     -0.82524581937531      1.65245871315607
  H           0.61185685598888     -3.73399463323593      1.59305870508946
  H          -2.16129101757623     -2.44793438559957      1.53536406116563
  H          -1.77344311560178     -4.23547478964165      1.59099969634218
  Cl          2.62861829323700      0.31674931532815     -1.41568082537613
  Cl          0.30657661279859      1.30434921814896     -0.00292870513493
  Cl          2.68176672940434      0.61486824445674      1.45830335264809
  F           3.23971765290665     -2.34782407813310      1.99787539531408
  F           4.12538164499801     -3.51400100789276      0.40786628067126
  H           4.13170059255307     -1.52472926254622      0.41448712695164
