19
Coordinates from ORCA-job NEB E -36.586116501700
  C           1.07327196969234     -0.38540223839547     -0.27314579091869
  C           0.65954305775207     -0.18132933954577     -1.60226503229551
  C           0.62769294635439     -1.66647531034224      0.40654575665896
  H           2.10447656981927     -0.13293350571457     -0.04179791891628
  H           1.24389015397640      0.47415201882816     -2.25150797363355
  C           0.01024137727152      0.97352817288793      0.51178634755916
  C          -1.30239365150406      0.60115101954766      0.17839676498989
  C          -1.63254685819129      0.57664158885451     -1.20339163248471
  O          -0.57196985566007     -0.42111569366769     -1.92218816104381
  N           0.35745795580371      0.98255827163192      1.92490251750113
  H           0.45676868296010      1.83962209561425      0.03096491771279
  H          -1.83066150683210     -0.03693829533009      0.87141302174590
  H          -1.43557160230264      1.48752029880727     -1.76268516516103
  H          -2.58823753215371      0.13661714894726     -1.46103519484014
  F           1.65455136621088     -2.57367494066247      0.30930245626491
  H          -0.23448898317688     -2.09920439314502     -0.11031927532197
  H           0.41799952568385     -1.55445771137026      1.47503589305183
  O          -0.17377847853021      0.16960223134537      2.64473613907621
  O           1.16375486282642      1.81013858170926      2.27525233005492
