19
Coordinates from ORCA-job NEB_reactant E -36.621080100330
  C           1.67665981812124     -0.03801931137027     -0.02490759872877
  C           1.08096363945270      1.14136342383733      0.08331462462024
  C           2.07750382378324     -0.87116089749010      1.14826292422819
  H           1.89800207540961     -0.44207841924348     -0.99827850337559
  H           0.80103339763463      1.71903603879175     -0.79017512183829
  C          -0.39033074405880      4.58805544518604      3.09048116265074
  C          -0.23411538358029      3.35677941241403      2.62010367732328
  C           0.30667777196540      3.01539794975305      1.27571364012038
  O           0.75403802553128      1.68023387638602      1.29256897189599
  N          -0.94736275722840      4.81782139942039      4.39266506765827
  H          -0.13027136860329      5.49674645337451      2.56925428632158
  H          -0.51960805011451      2.51346809565335      3.23754403641048
  H           1.12475645665896      3.69737390057775      1.00017788250093
  H          -0.49707509989115      3.13889414790799      0.53001656360897
  F           3.27000830879429     -1.50996566968624      0.89768657017142
  H           1.34339576286915     -1.66215333940426      1.34919050366545
  H           2.21587929027338     -0.25732429054422      2.04310065988675
  O          -1.28772933421073      3.86067089194297      5.05099351466347
  O          -1.03782563280670      5.97456089249342      4.74178713821648
