19
Coordinates from ORCA-job NEB_product E -36.625127064570
  C           1.57389181680550      1.54510481285490      1.46953681561476
  C           1.12812453231221      1.37922398868853      0.03058311878775
  C           1.34397972335113      0.27068678661475      2.28249537301501
  H           2.65849474048514      1.72700749710113      1.44543025901067
  H           1.19382157153761      2.31639475271389     -0.55222327716412
  C           0.89739642104194      2.80665761575434      2.05535652982850
  C          -0.59704151995270      2.74403120594098      1.98936323538678
  C          -1.31362224018455      3.49284485455915      1.17258390460262
  O           0.75002118539775      0.35856639607476     -0.45984486558815
  N           1.37261668078958      2.94436830250200      3.47310627957494
  H           1.27655484179848      3.68484832535489      1.52141093322107
  H          -1.07163941669121      2.05375573803221      2.67067494827422
  H          -0.86163244575501      4.20086662676924      0.49693558725516
  H          -2.38624709958882      3.42440438764277      1.14271560483450
  F           2.28248047244106      0.18168105843897      3.27666918364671
  H           1.46692100283109     -0.60820377164094      1.64149534147051
  H           0.36333148143826      0.24588570398902      2.76466640074259
  O           0.67220997128529      2.50669549251896      4.34450732406032
  O           2.43793828065726      3.48668022609045      3.61283730342615
