20
Coordinates from ORCA-job NEB_product E -36.917694262850
  C           2.89096295899642     -1.23877245684168      0.72398197452404
  C           1.53110984907252     -0.79079027727974      1.14129630887491
  C           3.14140893990199     -0.90632704858906     -0.65984179309628
  H           3.64992640501417     -0.76385151152339      1.35790970248225
  N           1.46918184408269     -0.48130840608604      2.67015420358598
  C           2.97294816183369     -2.79028008267161      0.94496903147849
  C           1.95206424134453     -3.48165610404357      0.09114635347327
  C           0.90402466118436     -4.12318148015025      0.57143821716880
  O           0.51820026158578     -0.70339045775414      0.54052170360398
  C           4.38516845786457     -3.26970660737278      0.61719846858049
  H           2.76487923973172     -2.98379746796534      2.00267915179923
  H           2.12470603381970     -3.41790058563755     -0.97457598948466
  H           0.71289281472063     -4.19402707415620      1.63056870383155
  H           0.19379435506320     -4.61020165929333     -0.07271408372499
  N           3.36375077489300     -0.64821083921501     -1.74914595156519
  O           0.37135140218804     -0.28037797081268      3.10645886846440
  O           2.51441659541996     -0.48031284001414      3.27634943819814
  H           4.63463950593719     -3.05454470117987     -0.41956740469791
  H           4.44473062983563     -4.34436934287394      0.77152245878184
  H           5.11654286751021     -2.78749308653963      1.26185063772169
