20
Coordinates from ORCA-job NEB_reactant E -36.864547008080
  C           1.75555415579355     -0.04539565210523     -0.02360145916292
  C           0.88846011413238     -0.73928026963612     -0.74815080899158
  C           2.16274266518060      1.34895398682943     -0.37937099681429
  H           2.21026693361544     -0.46785488363127      0.85674342977512
  I           0.39502577501101     -2.73120775491661     -0.12156568750297
  C          -0.22010354586469     -0.08050365143167     -5.23102847055015
  C          -0.63309721956867     -0.18123805339836     -3.97943156959436
  C           0.03679948507698     -1.02319939363936     -2.94447147096769
  O           0.21081660130370     -0.22840672873963     -1.77516044074269
  C          -0.89756634820777      0.73980083679413     -6.28016209062143
  H           0.65102174946172     -0.61384139480156     -5.58609265457557
  H          -1.50127538079160      0.36280752144935     -3.63718147679746
  H           1.00679353758219     -1.39196081918963     -3.30119755212886
  H          -0.60054957399716     -1.88734668187138     -2.70031824922927
  F           3.52959996732523      1.47814002382820     -0.30342030266559
  H           1.74481046492314      2.07441321634881      0.32972625538055
  H           1.86408271011016      1.60830919206420     -1.39944872575933
  F          -1.99982889485838      1.39199383205710     -5.79499345050466
  H          -1.24068949424687      0.10676207147276     -7.10843986083201
  H          -0.21896370198098      1.50825460251683     -6.67173441771483
