22
Coordinates from ORCA-job P E -43.420447016810
  C          -1.36404656860864      0.34708429927504     -2.37893548409435
  C          -0.10906911516392     -1.71237754620274     -1.08449376875454
  C          -1.50858113313272     -1.92634108798105     -1.57051570915799
  C          -2.11888350695342     -0.93598125410027     -2.19941034763652
  C          -0.73088382986518      0.77590119237605     -1.04396468103969
  C          -0.01156566231619     -0.37953206907423     -0.31784577500507
  H          -1.97447750540159     -2.88203469009699     -1.39906599059221
  H          -3.12018949432836     -1.00955056977572     -2.58967080356537
  C          -2.26800119994128      1.45695649817374     -2.90279089828394
  H           0.20464440940130     -2.53614610671574     -0.44331803993825
  H          -0.56813639294140      0.19997490455592     -3.12128963268829
  H           0.56175812605048     -1.68078987873111     -1.95014290275152
  H          -1.52024741056656      1.16408979256181     -0.39676428329908
  H          -0.48865333172036     -0.53109231179059      0.65867894017636
  H          -0.04531428003324      1.60226423682288     -1.24344888682932
  C           1.43763323117477     -0.01720271386154     -0.02832038130369
  F          -1.57074999938445      2.60586066192307     -3.07596029420285
  F          -2.76994947543776      1.13192884420079     -4.11696452529845
  H          -3.11717521940803      1.67848319408629     -2.23659189070956
  Br          1.53357998232593      1.59476169399367      1.09045761351334
  Br          2.35252246977476     -1.43766732193469      0.95487500746411
  Br          2.44792590647585      0.32544023229541     -1.66478726600312
