22
Coordinates from ORCA-job TS E -43.309985247580
  C          -0.76022030484483      0.32053203623857     -1.17470736325199
  C           0.48802706760644     -1.97908726524449      0.03412142947100
  C          -0.84266544856969     -1.90105353902447     -0.18300617750440
  C          -1.45791191672949     -0.79356008108290     -0.81116398516030
  C          -0.14123614916354      0.98046118702117      0.83446225913354
  C           0.66287815919845      0.05406155362931      1.42359780029293
  H          -1.49675829214121     -2.63120060485846      0.27271933703585
  H          -2.53909012636197     -0.75463186647554     -0.80759478344283
  C          -1.48344864909590      1.49505456247935     -1.76703798492869
  H           0.89592664663025     -2.78464767631395      0.62133907723808
  H           0.27984613158576      0.26880752015482     -1.45786726593794
  H           1.19237565264966     -1.42186805883634     -0.55557437039559
  H          -1.16671429450590      1.05796401300904      1.14743572621181
  H           0.27368356615299     -0.63578684017077      2.15662734488417
  H           0.28479783442341      1.85638996470135      0.37273285154522
  C           2.13410050972961      0.21293375578085      1.44063847983838
  F          -0.75269759895272      2.63095877002138     -1.66159709591199
  F          -1.68132511991491      1.30453257656097     -3.09979098374362
  H          -2.46938760192236      1.68554880582754     -1.31329885971281
  Br          2.61796743000774      1.64425987948738      2.77349568741910
  Br          3.07230960236945     -1.39030955592413      2.02237209824137
  Br          2.88954290184876      0.78064086301932     -0.26790322132128
