21
Coordinates from ORCA-job NEB E -45.387732076190
  C           0.73869007261178      0.43902865077799      0.98373779766057
  C          -0.52095799601868      0.32312115085006      1.56796195887395
  Br          1.53105578232925      2.17191959145878      1.01419467214173
  H           1.47306149216935     -0.34008755203845      1.13220390299956
  C          -0.92556443636234     -1.09828862577174      1.99726016236132
  C           0.21375215197447      0.26713945074067     -1.04888959455510
  C          -1.17914251380040      0.45643726400256     -1.03656113254083
  C          -1.73210589879973      1.56261031419675     -0.42646166951302
  O          -1.43307930045413      1.17144542538934      1.40654265149755
  O           0.67091731595573     -0.92975866641270     -1.44157684644556
  H           0.84848068018090      1.11901589532984     -1.28327352975351
  H          -1.77660132102997     -0.43757981302292     -1.15545366350098
  H          -2.80342122011123      1.65716017063427     -0.36542440844751
  H          -1.18212081152399      2.49126760611899     -0.39045470543027
  F          -1.38833596441731     -1.82916451990844      0.96606037351557
  F           0.11270114081509     -1.78388507026088      2.50646497728286
  F          -1.88213114896855     -1.08547117562941      2.92387937232405
  C           2.04454054936825     -1.01049902223689     -1.77025419253989
  H           2.67711795873514     -0.77590101007928     -0.90952395742284
  H           2.29100709954590     -0.33068518763564     -2.59068601711854
  H           2.22213636780046     -2.03782487650291     -2.07974615138911
