21
Coordinates from ORCA-job NEB_product E -45.419014554260
  C           2.77016947175564     -0.86427285559047     -1.88933967814517
  C           1.47963927263723     -1.61354923806769     -1.70678704942743
  Br          2.52751220636970      0.94500404182151     -1.23728712269647
  H           3.57396163715428     -1.31241531132985     -1.30196500411401
  C           1.64388111845935     -2.89035207835159     -0.83070433048015
  C           3.16705756446148     -0.85457246737520     -3.38539899146192
  C           2.16231350304514     -0.12833014573118     -4.23617515846584
  C           2.36357278045078      1.08417960865973     -4.71657064598539
  O           0.41325115802239     -1.30566887606256     -2.14215033154933
  O           3.27575110314601     -2.22357652622813     -3.71573215609795
  H           4.15062239544081     -0.35966551894281     -3.46875968848098
  H           1.24709275044147     -0.67058146565672     -4.42511235642794
  H           1.61872358817660      1.58517332587238     -5.30907855757742
  H           3.27289242968461      1.63082902853842     -4.52505476000993
  F           0.52110691538494     -3.59440284727929     -0.75511040509425
  F           2.60739625216849     -3.69734958200085     -1.28528445302405
  F           1.99234972580649     -2.53929090884982      0.41988842953258
  C           3.89823656540292     -2.45880695579812     -4.95848760211883
  H           4.91481434716247     -2.04978570139156     -4.96919945868328
  H           3.32679946056513     -2.01787559943000     -5.78136177795060
  H           3.93635575426405     -3.53928992680619     -5.07232890174163
