21
Coordinates from ORCA-job NEB_reactant E -45.428363197120
  C           1.35645710759243      0.10336484281252     -0.29029228476020
  C           1.62719659829882     -1.01550216988157     -0.96260980585479
  Br          1.59216962675487      1.88943417641033     -0.84708396169762
  H           0.94807766939924      0.04597424244276      0.70437168647316
  C           1.34540151977121     -2.34654940838082     -0.27390442956569
  C           4.26062001226435     -0.86617688195980     -4.70842643740959
  C           2.98792951927662     -0.93072215397960     -4.32962602236940
  C           2.49175917108463     -0.25614576410702     -3.09370478965444
  O           2.12377482684120     -1.29348466549187     -2.17409207196021
  O           4.84461747891542     -1.42271046842268     -5.78207661047499
  H           4.98804054875786     -0.29041760860247     -4.15020264396240
  H           2.25341632943859     -1.50863211498910     -4.86586598369617
  H           1.60987362588072      0.35562363527858     -3.31568782678843
  H           3.27509399481949      0.36910520167982     -2.65569904459332
  F           0.51806319473692     -3.10517766533835     -0.99938781085295
  F           2.46794527946118     -3.05098117504751     -0.09560372689854
  F           0.78259125582805     -2.21082512355492      0.93307580805370
  C           4.04670086163652     -2.22792122056114     -6.62207586542456
  H           4.70789151552184     -2.59160094566445     -7.40614697877409
  H           3.23380429303368     -1.64704257122813     -7.06764807274558
  H           3.62717557068638     -3.07541216141457     -6.07261312704391
