16
Coordinates from ORCA-job NEB E -29.538077152080
  C           0.99790846217469     -0.36193594213164     -0.86234235621665
  C           0.35967752989856      0.88698699544918     -0.74041469417819
  Cl          0.43381047429391     -1.42604814264852     -2.12191327860018
  H           2.07590011334885     -0.40702274358061     -0.75646570255972
  N           1.02050859800344      1.89868352734533     -0.06238955396687
  C           0.24037672814729     -1.16706844188380      0.77417866681171
  C          -1.12934523591151     -1.09228082332729      0.55265082208986
  C          -1.68015251605882      0.21149612612686      0.44070682104477
  O          -0.92433117022797      0.96617975494953     -0.83169481063466
  I           1.14359372506294     -3.07963872460339      0.94671731394952
  H           0.70030166118102     -0.47599152145914      1.46961233312357
  H          -1.62473294490758     -1.90617622311831      0.04587669030742
  H          -1.42036694598212      0.91573707053023      1.22683461122452
  H          -2.71811153217297      0.27495035836941      0.14122209929925
  H           0.51414036906054      2.76909354443996     -0.00880380695651
  H           2.01082268408973      1.99303518554219     -0.21377515473787
