16
Coordinates from ORCA-job NEB_reactant E -29.561698637630
  C           2.17779592036389     -0.13769009636085      0.26934867852707
  C           1.30036031484162      0.08497185936479      1.25402999009274
  Cl          2.25734498285345     -1.65553543213289     -0.54322880060953
  H           2.87644168178600      0.60305822535980     -0.07306550164702
  N           1.30843408548379      1.25336769190565      2.01768696770528
  C          -0.09574319530861     -2.91921083896232      4.29091056852512
  C          -0.51704478319682     -2.29138985513169      3.21198088124161
  C          -0.13570042014796     -0.87729292715319      2.89255991085963
  O           0.38055572089692     -0.86134081752252      1.57055980231338
  I          -0.64409420841183     -4.89148666488614      4.75899938339458
  H           0.54409898322751     -2.46939046799054      5.03153577438971
  H          -1.14543353806078     -2.77204499011067      2.47733596896959
  H           0.60772886311125     -0.49859230733219      3.60207146938090
  H          -1.03556205142585     -0.24337886365555      2.94617650146952
  H           0.38932169408396      1.64028591113940      2.18863208933704
  H           1.94469594990346      1.94906957346890      1.65826631605039
