20
Coordinates from ORCA-job NEB E -39.374188659130
  C           0.05244858232013      0.84209886871457     -0.66300629811933
  C           0.03463989738175      1.71270634436538      0.43680046659524
  C           1.14590747205078      0.86951692724142     -1.68164673543071
  H          -0.92763405147964      0.73613726549914     -1.12267634587691
  Br          1.73679861145038      2.36009618866973      1.15184283241395
  C          -0.02547849044612     -0.90401815388072      0.35894230673702
  C          -1.15426392872948     -0.67583978453557      1.14722198822907
  C          -1.12564618612654      0.31244368814959      2.14312101260424
  O          -0.94408415971804      1.76655372510476      1.21781803534278
  C          -0.06823690661791     -2.00615492448955     -0.65855299590077
  H           0.93913862676533     -0.78708301850048      0.84506358817981
  H          -2.11543242353561     -0.98768547637748      0.76192478566749
  H          -0.22647155262032      0.41501203240691      2.74107859667202
  H          -2.03709565671348      0.53049172303982      2.68060948247524
  Br          1.55685689179351      2.72994225865767     -2.22940149679909
  Br          2.82104093257198      0.04967971982348     -1.11705456372428
  Br          0.57729274671710     -0.03815603890174     -3.31868873251078
  H           0.82839456496586     -2.04074287353057     -1.26947947583528
  H          -0.94253155759848     -1.93126972243412     -1.30085816916671
  H          -0.12564341243121     -2.95372874902224     -0.12305828155302
