20
Coordinates from ORCA-job NEB_reactant E -39.403792713760
  C           1.52141906266250     -1.24362729628216     -0.06244303172445
  C           2.03348657013952     -1.36333113882700      1.16867041300734
  C           2.27904068826926     -0.86150399684840     -1.26511804542604
  H           0.47792228013468     -1.47542857261349     -0.21625106726237
  Br          3.84871886283085     -1.01265321080573      1.57248248136103
  C           0.75336677982429     -4.26158878294853      1.07719941727367
  C          -0.18054262184480     -3.39110450636885      1.42426973909452
  C           0.05509905987653     -2.14149001749796      2.22635415046061
  O           1.41606481517850     -1.73329603114594      2.28577820889000
  C           0.50638239111753     -5.48947092276856      0.27406173442051
  H           1.78326761996082     -4.10479944804491      1.37290005637984
  H          -1.21370368760035     -3.54581449762920      1.14617151756532
  H          -0.21524558630162     -2.30591661274956      3.27483422634000
  H          -0.56129586634261     -1.31828480598940      1.84043625078430
  Br          1.09919105940353     -0.84005413868483     -2.81596857762597
  Br          3.09245344870637      0.93597267748679     -1.13433839598939
  Br          3.73140123004659     -2.14152415213975     -1.67110650084927
  H           1.09648022065544     -5.45963845155715     -0.64145262869763
  H          -0.54489696492167     -5.58728891333121      0.01664399351774
  H           0.81949063820466     -6.36895718125419      0.83487605848022
