20
Coordinates from ORCA-job NEB_product E -39.408278160530
  C           1.77269559073421     -1.87834764809611      0.62157350617057
  C           3.13276672898593     -2.23116812628634      1.17843729171509
  C           1.75290271953449     -1.34860244945026     -0.80534249965818
  H           1.44323896598113     -1.02850236184119      1.24018754849522
  Br          4.39184133430154     -3.10487371873699     -0.03276299653906
  C           0.81328063870975     -3.06545678217805      0.99464779497829
  C          -0.53740509490739     -2.93461501384801      0.34987480307068
  C          -1.62011662223117     -2.55336203025576      1.00161225851587
  O           3.46128279737786     -2.06145611076910      2.30176369585003
  C           1.37896763195569     -4.46025802450885      0.71777323550873
  H           0.68259185667089     -2.97378356290651      2.07960017932044
  H          -0.59869295872173     -3.23398213722188     -0.68737863309274
  H          -1.58990899329120     -2.26890824054022      2.04084962591312
  H          -2.58002897992341     -2.50229517600781      0.51928584549019
  Br          0.13152393772741     -0.28194053158449     -1.09630908326679
  Br          3.24543486639095     -0.07904263013647     -1.04698631537068
  Br          1.82754895496155     -2.65055265429939     -2.23333268606020
  H           2.24573648554521     -4.66538590827181      1.34213114020548
  H           1.65220856144650     -4.60584075287149     -0.32299525475292
  H           0.61233157875178     -5.19152614018928      0.96607054350685
