21
Coordinates from ORCA-job NEB E -41.637109954310
  C           0.22361240215779      1.05495222570483      0.17471943324482
  C           0.08604832226947      0.95934971485960      1.56629603819779
  O           1.47584045453807      1.02973828621672     -0.34980994405987
  H          -0.50033452253058      1.66728741055009     -0.35755989980949
  Cl         -1.52776926290520      1.44100175794644      2.13191943608661
  C          -0.40278143759998     -0.89651465563615     -0.22088576853923
  C          -0.57181778023487     -1.54177938550188      0.99646712407516
  C           0.50783117614429     -1.53655270765823      1.89362103982360
  O           0.71919177267538      0.16184152915335      2.29444410220855
  C          -1.57888910659363     -0.75559705883516     -1.14944223270570
  H           0.53403076655057     -1.04552315808665     -0.74413303142139
  H          -1.57435269491422     -1.62457471383469      1.39592300060346
  H           1.50155923443920     -1.67196092430840      1.48736113973281
  H           0.36411322523307     -1.95872697858089      2.87728264630351
  C           1.59978207876662      1.54642540824271     -1.66102467042375
  H           2.65798439445604      1.48867291374052     -1.90681347070323
  H           1.27065778344142      2.58842544582920     -1.70424448261673
  H           1.02263121905967      0.95951760826677     -2.38091247357975
  F          -2.59283436101462     -0.05391819770870     -0.59628461326019
  F          -1.22824041354962     -0.08145258946870     -2.27762790504016
  H          -1.98626325038886     -1.73061193089079     -1.46929546811684
