21
Coordinates from ORCA-job NEB_reactant E -41.668590753340
  C           1.16984227278550     -0.04883161804733     -0.27592251517437
  C           0.99749828289993     -0.90705583167092      0.72965662971068
  O           1.67252925736514     -0.44148808033126     -1.47420521822015
  H           0.91548130108447      0.99575504483383     -0.15299876722397
  Cl          0.25383446994080     -0.31443074103411      2.20267396439850
  C          -0.80959277135238     -4.40240933786639     -0.91405438779611
  C          -0.51416421445129     -3.26981476891623     -0.29977756333087
  C           0.35896239127798     -3.16966723270999      0.90977142986931
  O           1.38584283289433     -2.19378655464805      0.73759512650116
  C          -1.68668246191631     -4.48700736849320     -2.12562774415963
  H          -0.45389301624851     -5.36127327960781     -0.56701017315909
  H          -0.89064433722903     -2.32789653512057     -0.67611717125910
  H           0.88338051230169     -4.10651943307323      1.10375859890564
  H          -0.25161919860719     -2.90541610085154      1.78538174299749
  C           2.00338704529509      0.60681208196561     -2.35744258253646
  H           2.32461242549141      0.13233442724074     -3.28240120041047
  H           2.81966897043827      1.21843091255153     -1.96032312380934
  H           1.13799862474795      1.24682046170103     -2.55776422847226
  F          -2.71293562077932     -5.35581133084068     -1.91585147030853
  F          -2.25546470633352     -3.30004603145808     -2.43830147011922
  H          -1.14284205960502     -4.84199868362336     -3.01883987640323
