21
Coordinates from ORCA-job NEB_product E -41.686208229820
  C           0.41446000423662     -1.36890468226763     -0.94103167936913
  C           1.01847414630949     -0.94823079421624      0.39236070479779
  O           1.38976108636843     -1.35352152032350     -1.94314529776189
  H          -0.42974821990067     -0.70445644382419     -1.18360195225428
  Cl         -0.14993148443790     -0.12182654764749      1.42827108843702
  C          -0.07828608562884     -2.83185993008795     -0.80333602055251
  C          -0.74603241242046     -3.08978141861558      0.51835467714620
  C          -0.23857808234474     -3.86879212813700      1.45393081783200
  O           2.12802368471699     -1.11810004991506      0.76048602321879
  C          -1.05919012312190     -3.16284060598583     -1.93248333608972
  H           0.80246869435987     -3.46855939723820     -0.92757989049921
  H          -1.69419801867302     -2.58941021723665      0.65952082627152
  H           0.70788809056682     -4.36772587485112      1.32711524426723
  H          -0.74469240797801     -4.02905667235933      2.38967750661465
  C           1.74033225018781     -0.06392210233329     -2.39270038692633
  H           2.44715403810863     -0.21539409402183     -3.20478489452706
  H           2.21414598546498      0.52415567846071     -1.59986865721901
  H           0.86197305895073      0.47440399796489     -2.76641588013016
  F          -2.11594546528643     -2.31189440580230     -1.91772096923177
  F          -0.49862476620585     -3.04157069041407     -3.15221147562332
  H          -1.45595397327255     -4.18671210114834     -1.84173644840079
