18
Coordinates from ORCA-job NEB E -38.229689961420
  C           0.43386546049546      0.58763329207031      0.81726128060174
  C          -0.50829140986627     -0.32543035002813      1.34725493891813
  N          -0.13118299862584      1.79232040169937      0.23091680868750
  H           1.29126189043928      0.82990091938956      1.44057646960948
  C          -0.25609676863948     -0.91660977621923      2.60172542146429
  C           0.96476068601444     -0.30966733464213     -0.76893110064789
  C          -0.26568445242903     -0.40289029558164     -1.43519705685868
  C          -1.36994332927668     -1.10233728728799     -0.77324608309371
  O          -1.54187289310161     -0.77167727797401      0.64381275767604
  C           1.99969104161643      0.45394662438368     -1.39126061994019
  H           1.35848443040563     -1.18383003127574     -0.25637676138659
  H          -0.46917773465561      0.19947564315527     -2.30431354325711
  H          -1.22463191023502     -2.18951241906480     -0.75987821591803
  H          -2.33066871793868     -0.87171343107022     -1.23321118544454
  O           0.34138191007524      2.83853464527886      0.60741164104887
  O          -1.05837055206584      1.65042990310362     -0.53693308725963
  N          -0.05984289184928     -1.35750697788681      3.64384465632789
  N           2.82631823963686      1.07893375195004     -1.87345632052755
