18
Coordinates from ORCA-job NEB_product E -38.250305174530
  C           2.61650059134532     -0.58593993629517     -1.17030648561598
  C           1.28904605411713     -1.00878193546284     -0.53150143321057
  N           2.78745011096914      0.89480391754961     -1.00141041410429
  H           3.44527612000643     -1.05913272920858     -0.62759073875739
  C           1.12146207818355     -2.45327727168495     -0.59981209058649
  C           2.61542095853031     -1.01961550740961     -2.65802852649884
  C           1.30564672418772     -0.70306938260004     -3.34667775842454
  C           0.50807374138062     -1.63810692626270     -3.82475303619852
  O           0.48996455999546     -0.26690179121043     -0.04400379424308
  C           3.70657094420397     -0.36838484594489     -3.35935518452744
  H           2.79269457459812     -2.10283881161004     -2.69680880717667
  H           1.06529264579036      0.34714446801562     -3.42424669962173
  H           0.74181348219875     -2.68906043704837     -3.75731821273432
  H          -0.41945059180186     -1.38600381138645     -4.30746307691891
  O           3.51559517204608      1.22986974015853     -0.10604227368058
  O           2.18371616986772      1.61300149609722     -1.74860159694646
  N           1.00919654693926     -3.58938279854656     -0.66154389064343
  N           4.55913011744191      0.14057656284964     -3.92113598011073
