20
Coordinates from ORCA-job NEB_product E -29.370008748260
  C           2.90041822525341      0.29222305913657      0.76129954923201
  C           2.72724630464226      1.75780937629162      0.96447527350989
  H           1.91386800717352     -0.17529328349172      0.79139672346525
  H           3.35964639270897      0.11006339869859     -0.20977037447347
  F           3.44480339459323      2.47361742362761      0.04116776458442
  C           3.76645392837729     -0.33594668590614      1.88259383096409
  C           3.01704485718983     -0.32717399585269      3.18291794431419
  C           2.75868671200998     -1.40988322080824      3.89113191434870
  O           2.09855125949582      2.35036019741841      1.76770414965541
  C           5.11014083459430      0.38985264871491      2.05097631520711
  H           3.96452191320040     -1.37360027140396      1.59291458663098
  H           2.69568117136264      0.64580824431911      3.52712528519627
  H           2.22843292196581     -1.36535165048397      4.82663446541693
  H           3.07025737380222     -2.39007345837340      3.56686010800551
  C           5.99616147005652      0.31873583032712      0.81228384374410
  H           5.63303515975795     -0.07396398350078      2.89086568236721
  H           4.93036480462915      1.43468818289233      2.31457650595345
  H           6.12409028798258     -0.71341591479960      0.49199101684033
  H           6.97737732015989      0.73006170428645      1.03592233373886
  H           5.57631766104425      0.89108239890779     -0.01036691870125
