22
Coordinates from ORCA-job NEB E -35.528590075090
  C           0.31023781659835      0.37915624188583     -0.73384465451561
  C          -1.17596241030101      0.46267008608833     -0.65853739046589
  C           0.71864646229349     -0.74512889168354     -1.70435182900999
  H           0.64252908893578      1.31251936460302     -1.20873427262786
  N          -1.90276584512260      0.77233581439565     -1.79133357198756
  C           0.98425782819602      0.29059425715723      0.65221608668591
  C           0.06268052257085      0.60770159633765      1.76121452804908
  C          -1.38550971395498      0.46453771971486      1.68193122900860
  O          -1.94585010991561      0.28938441930687      0.42170918153515
  C           1.62471095669123     -1.08160214533906      0.97084622793739
  H           1.81112538903539      1.01307542375010      0.66252388146893
  H           0.47602745713326      0.68101616646133      2.75331366101282
  H          -1.88095665322618      1.35596375977787      2.09703645543970
  H          -1.72882389238244     -0.37336911243087      2.31083216494202
  H           0.37639388917927     -1.71504254597170     -1.35623426558864
  H           1.79796986392270     -0.76178818252221     -1.82320706434588
  H           0.27532298766380     -0.54437655002333     -2.67561716690015
  O          -3.13189395094140      0.80287745991742     -1.70618651437975
  O          -1.27696106168072      1.02393403254261     -2.83083665666918
  H           2.40608326083768     -1.32005056841850      0.25687991327339
  H           0.87434962235017     -1.86697111718191      0.95751039558429
  H           2.06838849211694     -1.04743722836764      1.96286966155322
