22
Coordinates from ORCA-job NEB_reactant E -35.569695393190
  C           1.52923821903859     -0.20480351781381     -0.08619645120005
  C           1.75502225428971      0.80425981571622      0.75728265581850
  C           0.65310422118061     -1.36507348936523      0.20779470105563
  H           2.00838634452230     -0.16718808566593     -1.05459081971966
  N           2.61382340374378      1.91151214599965      0.33204676876310
  C           3.78239689174331      1.87765567928189      3.93830476056072
  C           3.35665583517629      0.90336205656309      3.15086275548980
  C           1.93486405295654      0.43897767276460      3.09458676549126
  O           1.20218276282696      0.97593363777049      1.97662957737613
  C           5.18028242238176      2.38464118826474      3.97805068691005
  H           3.08498425952052      2.36792824034549      4.60462533469162
  H           4.03982241769829      0.41460658525733      2.46625796070503
  H           1.37337544395604      0.78830781628629      3.96201793925545
  H           1.89418255467424     -0.65823025103141      3.04472479803600
  H           0.14314840684716     -1.23876534085081      1.15902759252160
  H           1.24492954973521     -2.28032712903267      0.23031985230325
  H          -0.08575280562622     -1.47627015307990     -0.58433101263672
  O           2.68352467463643      2.87200826889816      1.06228484953939
  O           3.19481628784177      1.79527007784717     -0.72889548141397
  H           5.19462673371453      3.42725376744524      3.66269632187413
  H           5.82712941472398      1.81080265708427      3.31945618176721
  H           5.57185665441818      2.33973835731515      4.99354426281153
