20
Coordinates from ORCA-job NEB E -33.824333295460
  C          -1.77506296785511     -3.87152244083422      5.33565699646671
  C           0.33118857542979     -1.44255699770582     -1.05145928016196
  N          -0.58676067836767     -1.46998260465523     -2.08050476640835
  H          -1.41561030324580     -3.52994867633800      4.33367070287092
  C           0.03517022917534     -2.03009372515042      0.16269079590022
  C          -0.16228873411727      1.88095988545169     -0.21312123733476
  C           1.06080147630896      1.39115774369413     -0.37426208941861
  C           1.46377799572458      0.59547757964725     -1.57510323807279
  O           1.51020766803706     -0.80430394911341     -1.22404663238337
  C          -0.60396186756049      2.56128875279646      1.04786913300936
  H          -0.90798112213622      1.76863439555905     -0.99096741019202
  H           1.80501329000757      1.46553126407100      0.41397862432825
  H           2.48668435600595      0.82666571935546     -1.89382518392420
  H           0.76392711589250      0.76444923878396     -2.40574840630883
  H          -0.21889057746529     -1.33135837656937     -3.00976360435210
  H          -1.32187633234201     -2.15030900139939     -2.00025670934063
  N          -0.20943657790270     -2.57230411998363      1.15561858944755
  F          -0.99199657334265      1.62233566948732      1.97074985256597
  H          -1.47078210418829      3.20069827152963      0.88988230932174
  H           0.20787713194175      3.12518137137355      1.50894155398692
