20
Coordinates from ORCA-job NEB_reactant E -34.123714673230
  C           1.91074949246170     -0.39458324961434      0.39896402341520
  C           1.68551437361441      0.89641253876209      0.06306304799148
  N           3.05818954211050     -1.06609611770953      0.08899030532853
  H           1.17964967929500     -0.92234051576516      0.99165769740870
  C           0.51357716731098      1.53625041246325      0.49477538948484
  C           1.98339513069429      4.37582359020179      1.22857234564965
  C           2.80642379092507      3.57678054619178      0.57246914163763
  C           2.49634770398696      2.97054130495961     -0.76336728571309
  O           2.60199252545020      1.55993145125728     -0.74452362108962
  C           2.26219366660043      4.96631245556407      2.57152904971961
  H           1.02223024843621      4.65431387491849      0.81969585936084
  H           3.75578538641829      3.28827478825463      1.00275355059453
  H           3.23858869345565      3.28473439809104     -1.50476188202057
  H           1.49769043415490      3.27971757566321     -1.10132217770129
  H           3.65526587252588     -0.60994814852967     -0.58278707335820
  H           3.02670557177955     -2.06989623697761      0.04809286726470
  N          -0.44812880407483      2.05737667784056      0.85243278986558
  F           3.49984561659548      4.61518782193244      3.04887311604154
  H           1.52585036760062      4.61476508300357      3.30501197467730
  H           2.23823354065870      6.06264174949250      2.53128088144263
