15
Coordinates from ORCA-job NEB E -29.420473629790
  C           0.74618911664846      1.10427238725816     -0.39130852044139
  C           0.57923025408464      0.93646774948287      0.98345587346257
  O           1.84186362898819      0.53399678530219     -0.97022911335826
  H           0.39442041138327      2.02956208814626     -0.83475106629680
  I          -0.91709683938916      2.29352262208348      1.81541096070084
  C          -0.69754418268584     -0.31570652677925     -0.94913571037641
  C          -1.06915407282574     -1.00761110634308      0.19308881797744
  C          -0.05674904611038     -1.56658374243827      0.97478092420658
  O           0.80797023927405     -0.10850217951752      1.61100886721796
  I          -2.18079989518532      0.71069542621999     -2.06053066282540
  H           0.05363865984381     -0.74900239294625     -1.59400595963280
  H          -2.01332096808103     -0.77109350684203      0.66636682134168
  H           0.81720257624693     -1.97166721023532      0.48281526553715
  H          -0.31751271306604     -2.04218767686843      1.90782817409459
  H           2.01166283087416      0.92383728347722     -1.83479467160774
