15
Coordinates from ORCA-job NEB_product E -29.471478693530
  C           0.96583308266900     -1.05521972267448     -0.93570953372066
  C           1.75436592237176     -1.03696895283447      0.36004105085933
  O           1.82095615095348     -0.88058548046708     -2.02208834087849
  H           0.17533822394230     -0.28938286677412     -0.89733737149313
  I           0.58187171347975     -0.38566557885680      2.06387324447611
  C           0.34203621792188     -2.44858566601471     -1.08117851117264
  C          -0.67472672012172     -2.78550747722107     -0.05544427459131
  C          -0.63976737133441     -3.89360001306688      0.66409512242806
  O           2.89170114798186     -1.31458061030213      0.49809477273879
  I          -0.59242869152559     -2.51931217098777     -3.05080373469996
  H           1.14289834667507     -3.18696675714911     -1.12520483562160
  H          -1.48645114787740     -2.07818011625049      0.05301807958125
  H           0.15135039529284     -4.61798835655967      0.55722712111528
  H          -1.39934740727797     -4.11414098489610      1.39280307751795
  H           2.26457013684915     -0.02571524594510     -1.99018586653896
