15
Coordinates from ORCA-job NEB_reactant E -29.455113545880
  C           1.60006206206891     -0.22368425900327     -0.25915067409834
  C           1.27880786609246     -1.16955061653224      0.61950815507273
  O           2.10348207245020     -0.53393111299962     -1.48365025693688
  H           1.46934084498549      0.81862358881497     -0.00641145378032
  I           0.43044301158406     -0.53583466509261      2.48306586548684
  C          -0.71252652836913     -3.92820726145689     -1.68832212603527
  C          -0.51857987932753     -3.05831235233572     -0.71780155936788
  C           0.37005708133222     -3.33446078306627      0.45663863024765
  O           1.50702976457419     -2.48142539419670      0.47325760047720
  I          -1.93667932601898     -3.53837463003515     -3.34894203507478
  H          -0.27234691150795     -4.91085590174643     -1.70225651822151
  H          -0.97115692428524     -2.07640923670459     -0.74319490876129
  H           0.77541183295877     -4.34722339021039      0.42222405592197
  H          -0.19840430459190     -3.20000313643871      1.39070206337483
  H           2.32385933805441      0.26734915100361     -1.96856683830493
