24
Coordinates from ORCA-job NEB_product E -45.006571157920
  C           2.23468167773003      0.45583295438680      1.49742994029521
  C           1.42127401347203      0.77505892654504      0.25416733174264
  C           2.41107378934055     -1.06634341172762      1.62743881092979
  H           3.23288151318096      0.89775859316679      1.43167592378019
  C           1.92761916969474      1.98787925921445     -0.51239548205870
  C           1.49111946227544      1.02966103861840      2.75642938832206
  C           1.36904161907209      2.52446658475681      2.63684945459770
  C           0.21210990190731      3.15729487737605      2.58987778296768
  O           0.47328827479616      0.12861033531282     -0.08831367355012
  O           2.08177368796267      0.59590241937442      3.95355738624117
  H           0.49282663661735      0.57779120435594      2.77854201582637
  H           2.30205565253966      3.07303454215650      2.61009150034397
  H           0.15356534693856      4.22981277872483      2.51230217756678
  H          -0.72398568600262      2.62606323862919      2.62259417341634
  F           3.53274739991472     -1.34448182210272      2.33540238633304
  F           1.39039516426517     -1.65826237539498      2.26835038367355
  H           2.51433493885261     -1.55391262376637      0.64391984970259
  F           1.10815542708212      2.29431975581084     -1.55639962743402
  H           2.92145961284696      1.77810712162408     -0.92746994169750
  H           1.97076818878651      2.86447158223353      0.14357120772834
  C           3.31004395389813      1.17239530901295      4.33590129522457
  H           3.63862239817427      0.59460889480232      5.19735220223821
  H           3.19211912668546      2.22024679334988      4.63114768200277
  H           4.07112872996912      1.09498402354002      3.55347783180737
