24
Coordinates from ORCA-job NEB_reactant E -45.015144486620
  C           1.77268574641855      0.18912953324528      0.27212744153562
  C           1.58759630486151      1.50547163936427      0.11835964892044
  C           1.61332116234711     -0.73073094341136      1.43728537277900
  H           2.17083850467215     -0.31945571111903     -0.59226202120376
  C           1.92062255806067      2.14239163213241     -1.22102395809986
  C           1.49534832691865      1.33891467310211      4.31992274658578
  C           1.71349999449566      2.05307661295516      3.22198599136006
  C           0.63462871703757      2.32976759566389      2.22017352575107
  O           1.12268417832514      2.49795448575647      0.89143839291311
  O           2.35525427852298      1.04401602322075      5.31379813436897
  H           0.52478348820316      0.90838259239590      4.52797673318850
  H           2.67204566602475      2.49254227278651      2.99529717276059
  H           0.17495799619074      3.30590245617524      2.42243364046321
  H          -0.14844258137246      1.56849658959352      2.25501156170442
  F           2.60310075965895     -0.56313618540314      2.36368398765286
  F           0.44268786763658     -0.59555571781656      2.11656066443915
  H           1.66696193537537     -1.78128585720438      1.11202679628768
  F           2.44065201951883      1.25900289086047     -2.12085923255437
  H           2.66031534076719      2.93686042734156     -1.07602495429826
  H           1.01331145356341      2.56620775254735     -1.66490915081517
  C           3.69580494240806      1.44814937708043      5.15414665203156
  H           4.22788282878874      1.07942674173726      6.02900942391476
  H           3.77822189822231      2.53891209039418      5.10851528827679
  H           4.12723661335437      1.01145902860168      4.24902614203784
