23
Coordinates from ORCA-job NEB E -64.602261099980
  C           0.44762359232887      0.35877384353372      0.80369822000828
  C          -0.88190279221935     -0.06573628122885      1.01229032619659
  C           0.76615333126032      1.80675089564810      1.11479557330072
  H           1.20865616281056     -0.27264018038027      1.25557141734243
  C          -1.18663475434817     -1.41408123967625      1.64211844275901
  C           0.66855913984906      0.12505168193233     -1.11453721432091
  C          -0.58977974898390     -0.17767874555266     -1.64901336386450
  C          -1.67456360735206      0.66140226222317     -1.25281470879727
  O          -1.85594134467940      0.43107382135728      0.32247930452713
  C           1.75757271634244     -0.89699639587291     -1.34725606023306
  H           1.02503152340051      1.14018915365865     -1.26062389236625
  H          -0.81484349449445     -1.21180041067949     -1.86994078945319
  H          -2.65373173241323      0.38085062106896     -1.62576934860389
  H          -1.49744816878658      1.73140694028359     -1.31693744036617
  Cl         -0.46069629349500      2.97665269633907      0.62122006873547
  Cl          0.88555780569332      1.88971373149244      2.91074433039085
  Cl          2.33057449869237      2.35297621683387      0.46762283841452
  Cl          0.19388374187417     -2.16671448916323      2.43798324694479
  Cl         -2.46042991858942     -1.13959721515496      2.86698020368693
  Cl         -1.83607535423634     -2.53817780398942      0.41853255390590
  Cl          2.10987120925734     -0.93596278589720     -3.09986532476887
  Cl          3.26831117394653     -0.51403429267109     -0.50081415097592
  Cl          1.25025231414242     -2.52142202410489     -0.83646423246257
