23
Coordinates from ORCA-job NEB_reactant E -64.642340963350
  C           2.32287536811931     -0.33016589550401     -0.46750418123511
  C           1.52609097393985     -1.14743159813153     -1.16425194051918
  C           2.53423557938240      1.12400179635997     -0.66990181605461
  H           2.89116028888712     -0.75020666137150      0.34928750420445
  C           1.45124060199041     -2.60921509495220     -0.73445187319193
  C           3.50265249550281     -1.54572315780709     -4.10796214624707
  C           2.19074536655161     -1.62631949890963     -3.95190271389654
  C           1.36082096396375     -0.48619354678605     -3.44908332324181
  O           0.73407948329547     -0.84599114106205     -2.21000772628169
  C           4.39245357913571     -2.65634842842241     -4.53414388212897
  H           4.03179973798457     -0.61991835779992     -3.92665386447916
  H           1.65929384670135     -2.55184314839684     -4.12070225638788
  H           0.51788040063252     -0.29376832910689     -4.11671069002476
  H           1.96313707289119      0.41904503173154     -3.34246187010953
  Cl          1.10041548492289      1.96480036225479     -1.28805866405109
  Cl          2.98489278126005      1.87378334762757      0.88148668575285
  Cl          3.90175608148824      1.39073004494110     -1.80967150747611
  Cl          2.99648755355874     -3.39776189575745     -1.18034857807126
  Cl          1.23022371359515     -2.75819738896365      1.01776322209191
  Cl          0.13251619669038     -3.44823976849779     -1.54873921303069
  Cl          5.17975249920110     -2.22220675512327     -6.08020404966533
  Cl          5.66763173091727     -2.86980958100213     -3.29760602537395
  Cl          3.55955819938809     -4.19962033532059     -4.74407109058253
