19
Coordinates from ORCA-job NEB E -37.120491976690
  C           1.06603539786729      0.48488660595127     -0.44633948786475
  C           0.30794349090413      1.63491233374073     -0.45124245137321
  C           0.89383714858678     -0.43486954600905     -1.61862567944268
  H           2.05974014059937      0.48621570296903     -0.02106476733137
  I           1.00916362262850      3.19491590570731      0.91582428925981
  C          -0.10329361112258     -0.51688626427237      1.15810957026296
  C          -1.30915733005854     -0.46632667451465      0.44634954503815
  C          -1.98538679076004      0.72460295941219      0.28001058995776
  O          -0.84743730000105      1.73227592840487     -0.87647588653806
  N           0.52394925828443     -1.67623736009408      1.44045371368293
  H           0.11656748383055      0.28588741756877      1.85236521398565
  H          -1.56326318405368     -1.31568705446744     -0.17218523931082
  H          -1.92265308606789      1.48832839520524      1.04085462895422
  H          -2.87572108170648      0.75216364010946     -0.32578703672861
  F           1.87829780162653     -0.21777122349429     -2.53159118796451
  F           1.02030536607511     -1.74960965960024     -1.28214997239466
  H          -0.07274917269586     -0.30663592483244     -2.12517646615763
  H           0.38532530138432     -2.45643139131795      0.81685305449478
  H           1.41849654467912     -1.64373379046638      1.89981756947004
