19
Coordinates from ORCA-job NEB_reactant E -37.136938754810
  C           1.74483484706361     -0.06016611823345      0.00063143463021
  C           1.07662812341197     -0.05013873854324      1.15788071910040
  C           2.16817935778080     -1.34682253136296     -0.63521197273806
  H           2.01465058858566      0.85118784372524     -0.49884408670670
  I           0.50382200083800      1.85728706577799      1.93884894951892
  C           0.01816542072930     -3.05776419060785      4.43834161599911
  C          -0.39306098472849     -2.59497825394450      3.25771931886643
  C          -0.21998304870152     -1.17710824850284      2.83881287089900
  O           0.81145893461869     -1.13130208569014      1.84600622119786
  N          -0.18255973046997     -4.33579640032217      4.89473338784777
  H           0.46921273847383     -2.39206788814657      5.16279628770775
  H          -0.83229075108979     -3.25605326690571      2.52664159578281
  H           0.07807151110655     -0.55448932725160      3.69180281289792
  H          -1.14656597231212     -0.77868179008905      2.40530271701938
  F           3.07946902537867     -2.01749390688621      0.12230216916539
  F           1.12476875961346     -2.20551144887308     -0.78935168016060
  H           2.61774793961468     -1.19196062114098     -1.62744288043746
  H          -0.42394569400038     -5.01801017964212      4.19254940203359
  H           0.44939693408706     -4.67152991336074      5.60208111737630
