19
Coordinates from ORCA-job NEB_product E -37.144144420060
  C           1.56386560775702     -1.27582456823556      1.52473507019206
  C           0.74565205529577     -0.10300260366217      1.09368624467393
  C           1.66041070257202     -2.28631106331924      0.36958905373725
  H           2.59122388374588     -0.96284960914137      1.73889633638027
  I           0.96858162348280      1.60385210075611      2.40390810005122
  C           0.98471462123762     -1.86164999635235      2.85679175581418
  C          -0.51296135227917     -2.03042346820689      2.77777633659217
  C          -1.35656305299906     -1.35399430721898      3.53493652186361
  O           0.03265318424739     -0.02142918713617      0.15609988856908
  N           1.71470355520605     -3.07020761700897      3.17776175908534
  H           1.21382038370786     -1.13278061228308      3.64413849158516
  H          -0.87117510192134     -2.77631875937626      2.08271137641603
  H          -1.02147093587268     -0.61164204815196      4.24188440462275
  H          -2.41978771097132     -1.51082192137809      3.47667759131597
  F           2.81984009815057     -2.97470851743496      0.44753849896546
  F           0.67673135998250     -3.21144909942272      0.37814016939139
  H           1.63071581228180     -1.78705229806733     -0.61244635502590
  H           1.45787125771895     -3.83524377184552      2.56378540961138
  H           1.52897400865734     -3.35484265251448      4.13098934615864
