24
Coordinates from ORCA-job NEB E -38.977433022810
  C           0.44379390061826     -1.01505277366758     -0.63408136405214
  C          -0.90059644449360     -0.54995309340794     -0.62279780200892
  N           0.73817681338035     -2.21129777371870     -0.06790111630468
  H           1.11647357882624     -0.68678290500821     -1.41709825249471
  C          -1.38186637452826      0.42324863649129     -1.67677113069498
  C           0.94282619795417      0.39597279459090      0.94984596351696
  C           0.12596483367012     -0.12074769548502      1.95706593312016
  C          -1.24034119143307      0.08759922595169      1.89515210732161
  O          -1.64369295719145     -0.88235945506322      0.34876120895747
  N           2.31175050570441      0.06795065662312      0.89946460950742
  H           0.71950782507124      1.33336598808537      0.46561125770262
  H           0.52681522432162     -0.92378496698600      2.56035613866700
  H          -1.62182479925219      1.01353098020613      1.49351922790194
  H          -1.88618977022413     -0.40222392564812      2.60496544406135
  H           0.04884888920270     -2.51930317634305      0.60779269611326
  H           1.69739863520100     -2.38292853913520      0.21431742863645
  C          -0.62702143355291      1.74989624760101     -1.76359363398233
  H          -2.43746171915115      0.61814203163612     -1.47872725893068
  H          -1.31053958690004     -0.08303585584343     -2.64324604556144
  H          -0.77283748494465      2.34221781429867     -0.86317301079308
  H          -1.00852298941520      2.32563111834106     -2.60360036641810
  H           0.43735084932830      1.59395365514776     -1.91899018992989
  O           2.66638079507317     -0.99255061746174      1.40136101276425
  O           3.05560670273506      0.81851162879510      0.29176714290047
