24
Coordinates from ORCA-job NEB_reactant E -38.997424263060
  C           2.11912282219137      0.52187607969143      0.00872308969683
  C           1.40301745502756      1.62577981515311      0.23530910591518
  N           2.63312171165242     -0.43583653517639      0.89797353625384
  H           2.26274978657949      0.26549265157410     -1.03108907956531
  C           0.91918788432102      2.48231880988991     -0.90613247992840
  C           3.68467469361233      2.55357585970055      2.27797049883737
  C           2.83874772857611      1.79753109121944      2.97524519543754
  C           1.38914952193387      1.64193460282111      2.65102130099424
  O           1.00033085870869      2.20161278595511      1.43116196208865
  N           5.06527403133193      2.63705728880893      2.62765950956683
  H           3.41008474334921      3.14945536756732      1.42177435860611
  H           3.20270560495655      1.25248473001064      3.83803472511870
  H           0.80427939130351      2.17534238663846      3.41224116814717
  H           1.11200135973512      0.57954332986062      2.70677673339642
  H           3.03018870563729     -0.06790243655695      1.75266300385180
  H           3.29025485460375     -1.05407528113526      0.44411685160386
  C           1.83524912559778      3.68692341692445     -1.13001619336800
  H          -0.08277323086940      2.83863223327168     -0.66269874761258
  H           0.86639023139080      1.88573617877312     -1.81611832243950
  H           1.85574849453509      4.31378868715399     -0.24190078620724
  H           1.47344864933362      4.28566341478955     -1.96207791699288
  H           2.84811959766263      3.35978533385493     -1.35556460360187
  O           5.47626749400471      1.93073519532069      3.52741898140713
  O           5.74425848482452      3.41514499388946      1.99010810879410
