24
Coordinates from ORCA-job NEB_product E -39.004328089840
  C           2.95197684768876      1.18211755962321      0.49145373587335
  C           1.47514831091462      1.40655550621792      0.12029249201662
  N           3.23740194200034     -0.20480620667396      0.78774685662268
  H           3.60401000896535      1.51880267643590     -0.32106327160415
  C           1.19082739384544      2.37682140640571     -0.99962798805284
  C           3.26992320149222      2.04527029960584      1.74860574580858
  C           2.62598728218632      1.51110367412802      2.98449655257297
  C           1.55110612940475      2.05017466292053      3.52784761086112
  O           0.61221766295677      0.76933170494873      0.66939195365541
  N           4.75744347104540      2.07442184212554      1.86560181807727
  H           2.96162776564205      3.07606528687864      1.55099573550713
  H           3.09649843832510      0.63612125231138      3.40669409737723
  H           1.07477207804723      2.92395758355340      3.11295293645419
  H           1.09306595504794      1.63131018161615      4.40574960280026
  H           2.48778458701353     -0.59106211243561      1.35495368750198
  H           3.30338063717258     -0.75344262013106     -0.06086475922106
  C           1.83137040694026      3.75400101504387     -0.83951921421004
  H           0.10729138462686      2.47581006372597     -1.09079882621840
  H           1.56564674704826      1.91293958410389     -1.91730510808948
  H           1.46460235968096      4.24366803274900      0.05986521655470
  H           1.56343703671682      4.37506325215006     -1.69065436987891
  H           2.91570812816546      3.69387693054429     -0.79632650241621
  O           5.27675180599469      1.56099657917429      2.81783949355914
  O           5.33542041907827      2.63510184497833      0.96367250444848
