20
Coordinates from ORCA-job NEB E -52.033818942980
  C           0.54250926396057      0.80486289281794      0.04516579501358
  C          -0.73500049933074      0.49972384149353      0.56940658275717
  C           0.56875629883464      1.62471853605837     -1.22648712891749
  H           1.25381014924599      1.24002824627048      0.74729367806090
  C          -0.94122933607185      0.49899458611169      2.05497065627055
  C           1.24551028049017     -0.85958534782849     -0.54236114468449
  C           0.23129340153384     -1.81957218378945     -0.40513072886453
  C          -1.03864945678670     -1.46162882308340     -0.95981096334177
  O          -1.57098008008750     -0.21768211418187     -0.10742507109155
  Br          2.87673891100110     -1.15808795161835      0.42461801016023
  H           1.48383607609009     -0.53834569968168     -1.55068219273258
  H           0.25360491567500     -2.48425259169820      0.44705292932695
  H          -1.83798824655437     -2.18154856715722     -0.81635014469629
  H          -1.02579346659593     -1.06013031715433     -1.97035513051073
  F           1.81106078178129      1.77851229018049     -1.69760506810693
  F          -0.15974317386046      1.12107659346879     -2.22903966770616
  F           0.09322149543778      2.85353113459228     -0.98705419013357
  Br         -0.37053390706804      2.16476232850477      2.86962441235339
  Br         -2.80152544063342      0.17744768846144      2.45399065574871
  Br          0.12110203293854     -0.98282454176679      2.88017871109462
