20
Coordinates from ORCA-job NEB_reactant E -52.071069142270
  C           1.63098048031726     -0.10753426352121      0.10143082216388
  C           1.58501288074931     -1.23600633691501      0.81947560076418
  C           1.93879068084249      0.07738556619302     -1.34586125406970
  H           1.41688389019366      0.83316759415743      0.58397401318960
  C           1.28833877544420     -1.19305585768417      2.30111357692667
  C           3.69235783749303     -5.00681120572606     -0.84758655396581
  C           2.52508059582600     -4.44292137929772     -0.59106098351993
  C           2.28477468423454     -2.97401780009299     -0.74685762861167
  O           1.81481502537840     -2.51162892637343      0.51957380914192
  Br          3.98403271004248     -6.85712724834154     -0.67385747541166
  H           4.55871405354429     -4.46644862183457     -1.19707884160363
  H           1.68506513707409     -5.02001643085803     -0.23328794139342
  H           1.51559672184104     -2.80584569155821     -1.50931979041577
  H           3.20804360726285     -2.45814594825573     -1.02389052669170
  F           3.20049313099646     -0.26307656805945     -1.68349294416525
  F           1.13715203968896     -0.62879312068528     -2.16754855437258
  F           1.79437245151810      1.35791692490893     -1.68990058292567
  Br          0.38852461645877      0.39226044371726      2.92589347843494
  Br          0.20200214604921     -2.72432242072847      2.78629332983083
  Br          3.01476853504486     -1.34117870904477      3.22658844669479
