20
Coordinates from ORCA-job NEB_product E -52.074647386370
  C           2.52824345944165     -1.62733870667157      0.27303354739533
  C           1.31210551758352     -1.82789004162954      1.16556114887216
  C           2.20559727660743     -0.66697563269620     -0.87735979790668
  H           3.36309003821565     -1.17998401533767      0.82264045520762
  C           1.42191831173489     -1.38453916490425      2.61675159689504
  C           2.95243176288773     -2.99382255094366     -0.29905296727100
  C           2.01992376220577     -3.55199689177235     -1.31631494894983
  C           2.42044220452417     -3.90848500676348     -2.52325337187196
  O           0.27591408831787     -2.27207188086001      0.76981716614491
  Br          3.05698646409671     -4.25302332149622      1.23645247628413
  H           3.97040828351138     -2.92863978780577     -0.69021955165960
  H           0.99054924104032     -3.66426995289923     -1.00658405162019
  H           1.73029495089664     -4.31218196027288     -3.24200698388064
  H           3.44507701881030     -3.80380103019515     -2.84153909160520
  F           3.18321624982366     -0.68589792634524     -1.79416296197717
  F           1.06959334857470     -0.93826302248595     -1.51101579547354
  F           2.11997453251040      0.59365284647455     -0.43825748578220
  Br          0.89539720621125      0.51449112454338      2.50853218765676
  Br          0.13523565449793     -2.35573167354536      3.67346954086609
  Br          3.15690062850806     -1.49633140439339      3.44510888867595
