22
Coordinates from ORCA-job NEB E -45.911476020160
  C          -0.30541552556909      1.14074130024635      0.70838849243028
  C          -1.57028391990586      0.62446635346111      1.00557171485879
  C          -0.09055589180667      1.85321728218042     -0.58451251517256
  H           0.22311639841710      1.62452262871205      1.51998855707595
  O          -1.88661947750560      0.56269192836885      2.32301040976039
  C           0.70117828390298     -0.71481004431788      0.50425341252085
  C          -0.13109109271257     -1.32937134385756     -0.43356239179731
  C          -1.44652340805523     -1.63486693735485     -0.08633250968728
  O          -2.25797895291718     -0.03813793977606      0.17711164954151
  O           1.99280826237209     -0.40630795057398      0.31515570442938
  H           0.53403448742298     -0.91186768446281      1.55933578519208
  H           0.10982802382514     -1.25420597906747     -1.48170522911461
  H          -1.64639475702539     -2.00249708957643      0.91176990197046
  H          -2.09920892506914     -2.02697027183665     -0.85000454532424
  F           1.18482472658163      2.25673356003356     -0.72576721559673
  F          -0.38596735056206      1.16621306970900     -1.69520081766683
  F          -0.82946022322983      2.98333442959027     -0.65305099442284
  H          -2.72338295829436      0.08696872861782      2.42713464147522
  C           2.53568499675719     -0.48257440283731     -0.99143729811927
  H           2.54168074471685     -1.51835662966446     -1.34269193042613
  H           3.55642108739507     -0.11733818778584     -0.90243828445049
  H           1.99330547126196      0.13841518019188     -1.70501653747661
