22
Coordinates from ORCA-job NEB_product E -45.942397827610
  C           2.78434744350627     -1.58310610921633      0.19778277732262
  C           1.55290991807811     -1.67154533815925      1.13591649485613
  C           2.50849692210863     -0.50278854148261     -0.83880780024338
  H           3.65137848960221     -1.25229534188610      0.78439659899674
  O           1.34536484903553     -0.61313102812812      1.91475589825388
  C           3.12211364181136     -3.00079823255226     -0.38426279950280
  C           2.62589642804554     -3.17110691653220     -1.79439390795296
  C           1.51357216167440     -3.82186325463578     -2.07665915307189
  O           0.84343211112682     -2.62772096413663      1.17848617758791
  O           4.47748355377804     -3.31542037361365     -0.16604586783362
  H           2.58727941297549     -3.71531868131224      0.25400034811275
  H           3.21889229981220     -2.72077498491750     -2.57721456693103
  H           0.90737814681259     -4.26346138890002     -1.30395841548341
  H           1.16016951047022     -3.92020196266394     -3.08827505586520
  F           3.46865530280288     -0.37886499818748     -1.76154000194977
  F           1.35685168725469     -0.65736453939687     -1.49025712640259
  F           2.43973227565026      0.71300547796955     -0.23929236693456
  H           1.94084335804865      0.13700507428283      1.77622487808763
  C           5.43958708361177     -2.82284670720027     -1.07653059497970
  H           6.40243064584510     -3.05779412838532     -0.62598193311469
  H           5.36677244095971     -1.74178165377822     -1.22166013526048
  H           5.37181231698952     -3.32362540716757     -2.04628344769159
