22
Coordinates from ORCA-job NEB_reactant E -45.944709834940
  C           1.77332285431058      0.18358493109560      0.24400890963786
  C           1.80301371121806     -1.16209646513359      0.21192266644694
  C           1.39445777612774      0.97235624577012     -0.95098283029106
  H           2.01065758117648      0.74450740880694      1.12842489797683
  O           2.15858822956186     -1.91180883692079      1.27261883690333
  C           3.85080337886882     -4.15385192427608     -0.18555433311668
  C           3.13389996255038     -3.54351312785706     -1.12299193294153
  C           1.68176719862908     -3.23336857278704     -0.94408927059371
  O           1.45428462514140     -1.81739750529004     -0.88446927080648
  O           5.15808900850968     -4.47649437067416     -0.20446830432041
  H           3.40145508041602     -4.48650388375585      0.74123571282016
  H           3.56797953784563     -3.18601413335271     -2.04317026390537
  H           1.28499406152791     -3.71258056976202     -0.04495554272390
  H           1.10343071252382     -3.54264396378137     -1.81777799818825
  F           1.49043971431505      2.29164652677301     -0.71586427457099
  F           2.17143868420083      0.72871464720353     -2.02701407892352
  F           0.12925346246038      0.76126149391834     -1.36909148397007
  H           2.37937445990121     -1.35082740403707      2.02499286074494
  C           5.90613368593750     -4.11339491839465     -1.34383107435017
  H           6.92249673918329     -4.45505493206619     -1.15760459913765
  H           5.90428552722668     -3.02911153996920     -1.48919213267722
  H           5.51473400836763     -4.59830910550969     -2.24294649401304
