16
Coordinates from ORCA-job NEB E -28.801652915970
  C           1.18110982858959      0.22984026925333     -0.59966213861777
  C           0.24419523450515      1.26712295511282     -0.73513655498581
  N           1.15481440595682     -0.80696452643052     -1.49622225046694
  H           2.17460631759443      0.47507555816212     -0.24186263345208
  I           0.77348044596069      3.11055035113589      0.29945691773093
  C           0.25983916628310     -0.44710280209480      1.15340759639382
  C          -1.02860300269999     -0.70878787931075      0.71467051739988
  C          -1.85525028049940      0.36443541427813      0.37394827737228
  O          -0.95447603467560      1.08384506695732     -1.01825199383057
  I           1.50077551705827     -2.07560434668201      1.72115736094543
  H           0.46111454252664      0.41832853911183      1.76723424657330
  H          -1.25619187119939     -1.68600193838014      0.31044038782293
  H          -1.82721067442147      1.26103471242172      0.97971276139618
  H          -2.81142125968896      0.16088780081422     -0.08221796582268
  H           1.74133384397403     -1.60114372297700     -1.28971791736687
  H           0.24188382073609     -1.04551545137215     -1.85695661109202
