16
Coordinates from ORCA-job NEB_product E -28.839437173970
  C           1.61415244776562     -0.85248559419738      1.69880202809360
  C           0.96692093072018      0.31554395507322      0.97534867266561
  N           1.46895665765530     -2.08223456548234      0.97659631433227
  H           2.68351196371832     -0.64304248699153      1.82417371016624
  I           1.55264623963592      2.25504785693667      1.76706153286704
  C           0.96410137449086     -0.94154353890658      3.09039597342915
  C          -0.52015497862321     -1.01190571701733      3.03824695850071
  C          -1.30426456135775     -0.13133467522147      3.63398420879673
  O           0.21299539107452      0.25667825790291      0.06907933917824
  I           1.74822663825009     -2.71547487480509      4.07588108213127
  H           1.28707943629461     -0.10352941169101      3.70825117859063
  H          -0.93880951806342     -1.84110153111553      2.48437912131048
  H          -0.90622328504409      0.69364876821414      4.20277314350173
  H          -2.37625493866813     -0.19861050828410      3.57371944257563
  H           2.00545157494476     -2.08986747758970      0.11854243473582
  H           0.50056462720641     -2.28278845682486      0.75536485912486
