16
Coordinates from ORCA-job NEB_reactant E -28.823397573080
  C           1.91946445766347      0.14361136869756      0.18275660919829
  C           1.64698171947902      0.30455814164189      1.47791592977257
  N           1.75208396059833     -1.04610883143598     -0.49502110485329
  H           2.24138670997482      0.98445152655510     -0.41042765900637
  I           1.79504838003942      2.25831345598342      2.33969271153040
  C          -0.51355908341113     -1.62433698512132      5.04275374552373
  C          -0.18825264074979     -1.80213783369301      3.77774277699344
  C          -0.01560644780641     -0.66473639638298      2.82340723732297
  O           1.31699614199748     -0.70237178767113      2.32070929228739
  I          -0.77413050350349     -3.21118645710888      6.39171080693931
  H          -0.69218568520311     -0.65709188494712      5.48163364323632
  H          -0.00131543966963     -2.78479744868929      3.37046684615416
  H          -0.19407050220873      0.29593022682508      3.32597690310239
  H          -0.72552971953677     -0.76213159260507      1.98793974640867
  H           2.36811348392056     -1.19147501238135     -1.27883914141229
  H           1.65587516841598     -1.85599048966691      0.10048165680231
