20
Coordinates from ORCA-job NEB_product E -50.283137267930
  C           2.46152420134360      0.91452616702396     -1.34024610365809
  C           1.17291249389403      0.74284963173511     -2.14946801391157
  C           2.09709221785610      0.87318720848368      0.14571888590654
  H           3.13109481738224      0.06697391956448     -1.52095290782757
  C           0.93992782692015     -0.69123379592582     -2.67483989986278
  C           3.20832346070476      2.21717021806459     -1.68556917636251
  C           2.48008522829174      3.47416743607257     -1.34826819978502
  C           3.00530142958729      4.41474239961377     -0.58436924127523
  O           0.36071132226708      1.59701565642730     -2.32240855499110
  Cl          3.51404857311439      2.16983748782353     -3.46718324163684
  H           4.19165832122379      2.20065762970185     -1.20644722854464
  H           1.49880970336072      3.58334701053582     -1.78406295929690
  H           2.46777712966600      5.31879731313121     -0.36108964862440
  H           3.98603198989918      4.31625887950961     -0.14797987847442
  F           3.17268941104209      1.04026881341002      0.92093573718374
  F           1.20437477262021      1.78995028987525      0.51076974161701
  F           1.57130732189611     -0.32220056193646      0.46654426342783
  F           0.23354232556346     -0.66661119917931     -3.81608740190969
  F           2.09631827969031     -1.34055344960094     -2.93093874401988
  H           0.37756917367675     -1.27705105433025     -1.92435742795448
