20
Coordinates from ORCA-job NEB_reactant E -50.279825103730
  C           1.79263456522480      0.11362404432734     -0.46239957046483
  C           1.17304616836887      0.72636917087772     -1.48130135114025
  C           2.61726491788360      0.68091387283593      0.64247334383401
  H           1.68350689642938     -0.95448489817327     -0.36865381595853
  C           0.34575483163373     -0.14813581740390     -2.42641676194655
  C           4.35733616325216      3.43475595530560     -1.61115554967156
  C           3.22074368023001      3.04038238755753     -2.15950562963412
  C           1.90274929849448      3.05211822770117     -1.44194178323114
  O           1.07344834021397      1.98412100792107     -1.88693853376142
  Cl          5.83432271977384      3.45750279249786     -2.47386363244404
  H           4.44222206104163      3.77506504358957     -0.59077166659656
  H           3.17989803286545      2.70463229125891     -3.18568814662104
  H           1.33646605921012      3.94385207985545     -1.73477471081025
  H           2.02555351366606      3.06406692884524     -0.35878731187111
  F           3.77234826161766      1.24837277006184      0.24592082047479
  F           1.97976192347409      1.62500946209421      1.36744807430592
  F           2.95546175286599     -0.28103533363364      1.50849492207987
  F          -0.93361845838587      0.27596891838154     -2.46038009055609
  F           0.82488428613577     -0.04102413742439     -3.68448303815728
  H           0.34831498600428     -1.21167476647577     -2.14767556782983
