23
Coordinates from ORCA-job NEB E -65.640620853700
  C           0.59187272894997      0.41373181749262     -0.70744964120283
  C           1.73408302906541     -0.25225205167325     -0.24405265390221
  C           0.28973760122083      1.80579256083570     -1.01956305846359
  H          -0.33782140653278     -0.23054672501962     -0.38259251830076
  C           3.12249597258343      0.34130953759358     -0.66361935273963
  C          -1.18166779295961     -0.31913477446265      0.60183414840367
  C          -1.96546753115469     -1.46979260676754      0.14907673464640
  C          -3.05200640268299     -1.33546316079084     -0.60909470153755
  O           1.74963074851292     -1.31812264402598      0.34177882692725
  C          -0.54662533534873     -0.49365393486475      1.97671205922424
  H          -1.70553921773285      0.63604612316530      0.56081489659478
  H          -1.60148939199853     -2.44413917272049      0.44545852817154
  H          -3.40147696172379     -0.36909151082655     -0.93442903572369
  H          -3.62793394075626     -2.19168371963507     -0.91261528584609
  Cl          1.35800172269490      2.34695007908482     -2.33901910718155
  Cl         -1.39063456007845      1.96160810204055     -1.61991506256929
  Cl          0.45568136221525      2.96454795686481      0.37316306371705
  F           3.26693988258975      1.62155073903397     -0.30255553278183
  F           4.09533525218049     -0.34176545877817     -0.07528145183539
  F           3.33115961086527      0.26756953024149     -1.98442873087583
  F          -0.12645656298935     -1.72346844581303      2.23182394806195
  F           0.44773967964609      0.35530159459774      2.22397771444849
  F          -1.50555848656629     -0.22529383557265      2.88997621276485
