23
Coordinates from ORCA-job NEB_product E -65.745278709740
  C           1.22702679345473     -0.92103015485112      2.06205878188765
  C           2.55671635731819     -1.63614358252669      2.32812032969118
  C           1.19799075659458     -0.14408130208403      0.74301363565429
  H           1.21591699036271     -0.15469273404306      2.85241853949470
  C           3.18707025630430     -2.63036634626431      1.30135581831527
  C          -0.05456380826062     -1.77566084952414      2.29795463448433
  C          -0.53839194592762     -2.65324792324876      1.17477190017469
  C          -1.70204250368464     -2.45510484231525      0.58377874052890
  O           3.17604216054499     -1.41728851721756      3.32432075133016
  C           0.14924998789046     -2.64226062981414      3.54352696377008
  H          -0.85659446228665     -1.07071492913558      2.54657017032853
  H           0.08003192388652     -3.49662739168211      0.91419973300859
  H          -2.34314598267739     -1.62742697784999      0.83830453397766
  H          -2.05094261707749     -3.11321884613414     -0.19146394158741
  Cl          1.16847327619362     -1.14673465842540     -0.71272647004125
  Cl         -0.24435488794445      0.89976343163052      0.72573631525998
  Cl          2.64733863438525      0.90737961281955      0.68724245327551
  F           3.81591102675202     -1.96068055551320      0.32650823678724
  F           4.09757349439736     -3.37626826047058      1.91701818537648
  F           2.32392127019254     -3.46231814920974      0.71846700814270
  F           1.11271527462082     -3.55961580949871      3.37629810849331
  F           0.48682708337044     -1.91517153819355      4.61575555979720
  F          -0.96576907840967     -3.30348904644800      3.86247001185019
