16
Coordinates from ORCA-job NEB_reactant E -29.745898219180
  C           1.42275806751000     -0.03088582760449      0.01320351345481
  C           1.62842137983801      0.89260861016611      0.95291476678500
  I           0.80162919371829     -1.96916821761412      0.51714004763470
  H           1.55660492089408      0.15263363719182     -1.03564390719688
  N           2.12128748907118      2.15898440147801      0.67914633118022
  C           3.72087235695558      1.85737158945696      4.41890622450181
  C           3.52182977553743      1.27946222218803      3.25038391690546
  C           2.50303714725438      0.20192704931389      3.04313242759357
  O           1.38534998515361      0.64648448222606      2.27721017448710
  F           4.62685145918691      2.83295507545389      4.58011676031823
  H           3.21691461132803      1.61533899580068      5.34370849396270
  H           4.07721272950557      1.60494585349393      2.38259974757396
  H           2.07232079798887     -0.11701751166663      3.99409476593474
  H           2.96983468604213     -0.66063897884868      2.54978827695369
  H           1.87680890788079      2.85163252794855      1.37167386951178
  H           2.01406649213516      2.47626609101597     -0.27137540960088
