23
Coordinates from ORCA-job NEB_reactant E -40.307519046950
  C           0.20428414960257      0.33310031205263     -1.18322784905413
  C           1.48711498598584      0.04974284201883     -1.40464677578060
  Br         -0.47372749571537      2.07834654455559     -1.44575948882969
  H          -0.51617257871805     -0.37810423978629     -0.82520279476775
  C           1.99757582787323     -1.35608155777244     -1.22597246237487
  C           1.92852693605194      0.88922473047703     -4.52196267264988
  C           3.12222208680766      0.67819666806156     -3.99352369723621
  C           3.44674026615108      0.85800617699179     -2.53962412562182
  O           2.31974133804762      1.08055909282298     -1.72821256615411
  C           1.61410709973383      0.68589351669521     -5.97035144392411
  H           1.08221131915436      1.20527921179451     -3.93143954844794
  H           3.95616523531263      0.37194762919857     -4.61031208135353
  H           4.05891565263891      1.75987661948209     -2.42090787603755
  H           4.04126097679838      0.00387149199275     -2.19049718088037
  C           1.89557734513410     -2.18485845309833     -2.50889124524904
  H           1.39829487447717     -1.83559955772342     -0.45040176764687
  H           3.03128177713939     -1.33103580616450     -0.87490654369985
  H           0.86841849418903     -2.19998602130814     -2.86455167062974
  H           2.20929305019406     -3.20727694852230     -2.31310797267403
  H           2.52119605051052     -1.77835382421368     -3.29910566212863
  F           2.69924356032099      0.30342973055834     -6.68594413629538
  F           0.69690354585472     -0.30960564661408     -6.12121460185339
  H           1.19602550245540      1.58792748850131     -6.44733583671051
