19
Coordinates from ORCA-job P E -29.367266901900
  C          -1.21141393195318      0.53718828792974     -2.39593990010437
  C          -0.40103950836448     -1.63046006258701     -0.50635793282533
  C          -1.25692741004581     -1.85604090012151     -1.71464727083546
  C          -1.62034763373773     -0.89801508830028     -2.54994393022809
  C          -0.69315833057450      0.81333933333710     -0.98180110906687
  C           0.27828105061167     -0.26791730220827     -0.53568182776133
  H          -1.57737735658181     -2.87509488944808     -1.87710780282828
  H          -2.22588134033245     -1.12628629060999     -3.41569874095582
  C          -2.38397739668555      1.45637209170959     -2.73310325090822
  H          -1.02401611251347     -1.69429089715588      0.39277443611597
  H          -0.40859604419502      0.75081918686930     -3.11345836643529
  H           0.34906114517543     -2.42141872499503     -0.43494739047989
  H          -1.53176319454681      0.81771972909255     -0.28043909268453
  H           0.70629180330549     -0.02692451315345      0.44059633523839
  H          -0.21587327401264      1.79368353471572     -0.95006977796334
  Cl          1.67474346400463     -0.32720460350256     -1.66185713391773
  F          -1.99295871330683      2.77248344117584     -2.69450637776917
  H          -3.19834640586441      1.34832757540369     -2.00837387280308
  H          -2.75753081038252      1.26970009184854     -3.74527699378755
