19
Coordinates from ORCA-job TS E -29.253560128450
  C          -0.37166522992983      0.34348714776595     -0.94556882296195
  C           0.98556209298787     -1.84615360686510      0.30853138518763
  C          -0.34919024117980     -1.85629293720220      0.08225179849629
  C          -1.01835158333791     -0.79805465753086     -0.56862024361196
  C           0.25888690765715      1.03522356188463      1.04290690216189
  C           1.12496187943989      0.15093967732655      1.59609618763216
  H          -0.96425694067202     -2.60564802739654      0.56209506604082
  H          -2.10028107131898     -0.80726627748688     -0.56212179725173
  C          -1.12800510081946      1.49180574661629     -1.54085969391837
  H           1.44217561522699     -2.60518004760843      0.92208607687009
  H           0.67313977314423      0.32208980555593     -1.21280859357701
  H           1.66107308873509     -1.28823732780780     -0.31186450205906
  H          -0.75287849925833      1.05927223731296      1.40822458514076
  H           0.86564747622818     -0.53482245330833      2.38280089652385
  H           0.62482530858543      1.92226163616059      0.55691073885615
  Cl          2.83466737336266      0.37187367091886      1.40782279873896
  F          -0.35066980768839      2.62420023472857     -1.58483087246697
  H          -2.02370098069080      1.74403072068805     -0.96302604963955
  H          -1.41194006047198      1.27647089624776     -2.58002586016200
