20
Coordinates from ORCA-job NEB_reactant E -32.642802779160
  C           1.62269552489177      0.47520355108801      0.24663991393287
  C           1.12347613037057      0.50103762885969      1.47759711691987
  I           2.76513517135249     -1.01666247636184     -0.67799552420148
  H           1.39863605098294      1.30122410454842     -0.40378192104282
  F           0.36225715387522      1.58589155091717      1.75983145302457
  C           4.16869315525206     -0.65418646427698      4.12688320635503
  C           3.50046715027178     -0.62554672347396      2.98584565263954
  C           2.14971891021372     -1.24350293516009      2.79559020443153
  O           1.13120861283939     -0.27014772900219      2.55520612530945
  C           5.52376151938768     -0.06221200736472      4.33202995988934
  H           3.74675202572873     -1.15942118824636      4.98655608275566
  H           3.91656052892084     -0.12083577575841      2.12452031581170
  H           1.81993181207267     -1.73462244520336      3.71372902012977
  H           2.16557553116913     -1.98223904025058      1.98687850182586
  C           6.53276000725502     -1.13551208390633      4.74069260982675
  H           5.46487893350131      0.68965814793174      5.12397407453286
  H           5.85824021604595      0.43052935320401      3.41778625862677
  H           6.22006436259381     -1.62366531975642      5.66096152843979
  H           7.51231645334000     -0.69217136952821      4.90082250802395
  H           6.61677074993493     -1.88971877825960      3.96173291276901
