20
Coordinates from ORCA-job NEB_product E -32.665640745640
  C           3.30921000954354      0.26060632686001      1.90479676869123
  C           1.89208309898603      0.55966892793903      1.55555446611617
  I           3.92519838279629     -0.96350061675176      0.20885352934622
  H           3.90796865118026      1.16972398794175      1.82696333641886
  F           1.83060012061268      1.52166253435059      0.58814327110898
  C           3.45169353228961     -0.40615643083425      3.27757100359339
  C           3.20860465030801     -1.88933680858644      3.22952366850372
  C           2.05936183064033     -2.45685194714063      3.54112436126707
  O           0.89238549484765      0.10096957802547      1.97944141323476
  C           4.79450715357828     -0.06569892303492      3.94628747933473
  H           2.65765793808726      0.03574007065257      3.89537378023198
  H           4.04953861376175     -2.49304160979962      2.91832411809284
  H           1.20377312115858     -1.87998969594905      3.85056821136375
  H           1.92379331153287     -3.52318269053758      3.48413242051699
  C           6.03859091183828     -0.44680262069213      3.15177653550679
  H           4.81556095149201     -0.57914469911665      4.91016651488279
  H           4.81923076002975      1.00877126902651      4.14822087305313
  H           6.04837800111098     -1.50543210947415      2.90779084687922
  H           6.92459222958645     -0.23228520876841      3.74491379997313
  H           6.11467123661937      0.12038066588964      2.22727360188427
