95
Coordinates from ORCA-job A2R E -121.909396997560
  Ru         -0.06564669006088      2.43981211399822     -0.07907228141380
  H          -0.58468580341839      1.06565803699353     -0.59808259937636
  N           0.96304203355634      1.38238428394602      1.36367619221430
  C           2.04192502186462      0.64385162802191      1.03328665236083
  C           0.58495566658551      1.40178776771128      2.65567496133348
  C           2.77516019346853     -0.06214320580501      1.97543809582286
  C           1.27508189716862      0.70849858406601      3.64077572278537
  C           2.39417764598814     -0.03408603142897      3.30617818919802
  H           3.62652492743899     -0.64203450449708      1.65557341415824
  H           0.93277058006804      0.76159149162158      4.66373241172929
  H           2.94923586481959     -0.57464013496849      4.05667192117035
  P           1.86080303121814      2.10743931729807     -1.26631317497650
  C           1.86016933955766      1.55092616720469     -3.08365159175399
  C           3.34005116197047      3.28212044686914     -0.98715479988854
  P          -1.65325757932590      2.52904740010058      1.51715202676358
  N          -2.42252923459756      3.95884599764423      1.92657898885245
  N          -2.98998083878837      1.45900955558735      1.65850910681188
  C           2.42283357600056      0.56906001413814     -0.41061611125984
  H           1.83084295979632     -0.22955048575834     -0.87550221351691
  H           3.48190741989154      0.33085876773651     -0.53531522888133
  C          -0.60263876765016      2.22956210432162      3.02376005826546
  H          -1.11285076226247      1.83803408801752      3.90588046113813
  H          -0.25128928483667      3.24601593623840      3.25043912384074
  C          -0.99388778808335      3.31422784521821     -1.40201354102904
  O          -1.59193991102272      3.82780503408166     -2.25391545200371
  H           0.46959878165932      3.75480521724773      0.54721090828996
  C           1.84393435206446      2.79729409758763     -3.96995905038176
  C           3.00119380342180      0.61267143383164     -3.47878242410997
  C           0.54162782692840      0.81010370669061     -3.31447065865942
  H           2.82161401420669      3.26848772331443     -4.02737235648059
  H           1.54458638483809      2.52877597504936     -4.98300150616441
  H           1.12094164116258      3.51576311491985     -3.58061784600836
  H           2.95507352308300     -0.32011116830543     -2.92182547607959
  H           3.97857976644433      1.05753617097706     -3.33333466814191
  H           2.90094465267181      0.37063014513253     -4.53719067473422
  H           0.44292381781649     -0.05183074721569     -2.65864909835682
  H          -0.30397833637391      1.47073806026128     -3.13276823206424
  H           0.49283574668040      0.45671548962695     -4.34443809378754
  C           3.59866518862726      3.28103757161448      0.52313875722038
  C           4.64645920454243      2.91691662451926     -1.68801666461658
  C           2.89769629577286      4.68926751199992     -1.39296380262999
  H           4.03529693244456      2.34155539035423      0.85847135421360
  H           4.29200164675293      4.08219654465511      0.77880866178367
  H           2.67125153096566      3.45796212857969      1.06724907193581
  H           4.57837493964716      3.03876806433937     -2.76528862896073
  H           5.43142315979929      3.58543525895592     -1.33279266401992
  H           4.95312054125862      1.89809261660287     -1.45930688645747
  H           2.87663541853023      4.81374096117741     -2.47138787651720
  H           1.89906601768311      4.88598906482132     -1.00230066026220
  H           3.58145441758470      5.43130852111015     -0.98170682389621
  C          -3.03117283274263      0.09852173963097      2.19302601040120
  C          -1.74657255353217     -0.70803307279087      2.00207112421914
  C          -3.47062963326223      0.10409538621560      3.65968189840693
  C          -3.74806029023070      1.58691269437445      0.41919423288251
  H          -3.82086138834100     -0.41455050959770      1.62939112006611
  H          -1.01440881476015     -0.47229230873531      2.77093528332305
  H          -1.32031543357546     -0.47831823101750      1.02602185937454
  H          -1.96703153178119     -1.77366134943571      2.05612557217326
  H          -4.37839414623377      0.69140919302750      3.77383475575630
  H          -3.66979008421302     -0.91417101333064      3.98675393044472
  H          -2.70314805368397      0.52320284658353      4.30478404432835
  H          -4.80519024711850      1.38103053876568      0.60480311985732
  H          -3.64607213383325      2.60928194413823      0.04475373119266
  H          -3.38103122181803      0.91311568555799     -0.36357975272995
  C          -3.24491097708398      4.01512137726957      3.12597559372805
  C          -2.73048019946483      5.06024671214442      4.11962935733482
  C          -4.72231557271179      4.26320036387571      2.81651030475339
  C          -2.41771962580138      5.11421122187684      1.05737689372363
  H          -3.16101486655786      3.02450699947066      3.58527346884389
  H          -2.91865761677882      6.06702834841379      3.75534779351567
  H          -3.23913487190095      4.94397660178346      5.07373560161879
  H          -1.66129255514064      4.94448604580196      4.27867503900070
  H          -5.07757799462876      3.54252503578392      2.08558329693944
  H          -5.30984210926888      4.15770431504470      3.72559122187101
  H          -4.87566946940797      5.26608117632745      2.42633743412058
  H          -3.39830138902173      5.29998448218113      0.60829812999665
  H          -1.69546202109206      4.93285507783675      0.26026230722926
  H          -2.10743239042651      6.00874919134224      1.60268402224685
  C           2.04848955130406     -2.84129239772912      0.12036886898824
  O           3.24561671719081     -2.64693048067355      0.13252327617551
  C           1.27449221805208     -2.80912814738449     -1.14537147588162
  C          -0.11404597767263     -2.68743471095184     -1.18690762650078
  C          -0.77104911926669     -2.65374272005290     -2.40282174563570
  C          -0.05890920951483     -2.75412581955725     -3.58772543606817
  C           1.32112051396020     -2.87587195136859     -3.55788964209235
  C           1.98253251394575     -2.89604010669608     -2.34591242927267
  C           1.27973102760701     -3.13098110384921      1.38435580645827
  H          -0.68364193227035     -2.59814520760971     -0.27555205479645
  H          -1.84490982143118     -2.54462067288399     -2.42780603860667
  H          -0.58040176884343     -2.73074480492196     -4.53287529013737
  H           1.87989461032115     -2.94959688190815     -4.47884053829713
  H           3.05811000215254     -2.98829091836878     -2.30004561188693
  H           1.97511293929061     -3.26090981164925      2.20965624116974
  H           0.67710020122220     -4.02833490788996      1.26469645195885
  H           0.61865163080603     -2.29616154524835      1.60917485634704
