95
Coordinates from ORCA-job A2S E -121.910542196000
  Ru         -0.00437702750848      1.85999118636896     -0.08520614073179
  H          -0.07569713171091      0.38829122397152     -0.56794962404999
  N           1.09295864587918      1.16267590330355      1.52250053206686
  C           2.42285453978373      0.97584911208059      1.41068644186852
  C           0.54054587818837      1.05327234929797      2.74245953188516
  C           3.23497546734992      0.77384889563852      2.51786920201243
  C           1.30583037956544      0.87393642378551      3.88617332867804
  C           2.68079927764134      0.75504631669189      3.78506788540546
  H           4.29679395253129      0.63815813260326      2.37861869279673
  H           0.81623356609174      0.82414618709778      4.84679429537302
  H           3.29628968423217      0.63101250234631      4.66242074368721
  P           2.06710173024944      2.10532856559893     -1.04592862023459
  C           2.48410522957984      1.46321317277968     -2.78567106989609
  C           3.00158881907502      3.75061077556166     -0.76505569302711
  P          -1.76822363824286      1.64039179178894      1.31018224268248
  N          -2.65682009789838      2.99197497664049      1.88595078277813
  N          -2.96719562463095      0.45991190821815      1.08114100525022
  C           3.01297209712901      0.94919914439767      0.03792568314137
  H           2.83364208711653     -0.05072471380874     -0.37948430437077
  H           4.08969843633486      1.13533400339551      0.05403643871216
  C          -0.95218229160293      1.05405166083810      2.87106651312614
  H          -1.25897487402137      0.00636787997440      2.97139739301008
  H          -1.26944268255607      1.59464065248353      3.76546606127140
  C          -0.95857285123300      2.54528255976663     -1.49813867866152
  O          -1.56492081380546      2.99630860582268     -2.38008926766158
  H           0.13186049127775      3.26209614087375      0.54839275890424
  C           3.92198557725367      0.98189306474582     -2.98003089531573
  C           1.56145215226070      0.27017545119042     -3.04065636868190
  C           2.12244842360101      2.55264611691888     -3.79658865225250
  H           4.14372541257380      0.14513959323864     -2.32212001037055
  H           4.03350087812737      0.63222568003983     -4.00658325844975
  H           4.65650822578477      1.76172871031175     -2.81707195845059
  H           0.51884897236563      0.56281747033342     -2.92806037884076
  H           1.71271175999333     -0.09949619950341     -4.05490503282154
  H           1.77685127356841     -0.54182210445842     -2.35099174207788
  H           1.14648070935211      2.97404883229866     -3.55030095669233
  H           2.86073069835090      3.35010646737791     -3.81898095641568
  H           2.06542283941756      2.12650742120942     -4.79817868036996
  C           3.09925049799493      3.94354871810464      0.75208831912301
  C           4.41621012891212      3.83812901432693     -1.33438428632419
  C           2.13878860409149      4.87638602202145     -1.33825911352411
  H           3.83249596485945      3.27472049404613      1.19905631033880
  H           3.40195957699249      4.96673754290025      0.97399448242577
  H           2.13213389036333      3.77453177948315      1.22336386645634
  H           4.41868946969782      3.85956663588940     -2.42015349818206
  H           4.87333114003126      4.76616483830864     -0.98881352691955
  H           5.03946717588409      3.01543933381234     -0.98935231048526
  H           2.16830661191351      4.89694137816481     -2.42355620372834
  H           1.10361876243782      4.74195609335691     -1.02577201266686
  H           2.48748245072125      5.84207901493458     -0.97303355453983
  C          -4.14372682643019      0.18814442010228      1.91624249638928
  C          -4.47556059080746     -1.31008230595585      1.88776726461975
  C          -3.99940527157164      0.62209504753134      3.36936479306616
  C          -3.21492735974826      0.09853289631169     -0.30819349101956
  H          -5.00939394206761      0.72727165355496      1.49295306801178
  H          -3.59500102344837     -1.89293301984036      2.14570771371612
  H          -4.83352371208358     -1.62884571263508      0.91336845078934
  H          -5.25605591257690     -1.52004356390402      2.61547920943592
  H          -3.66734743995736      1.65172934950067      3.42370951640767
  H          -4.96992626758294      0.54377413057717      3.85610329587350
  H          -3.30141843187367     -0.01850640373368      3.90136141866063
  H          -4.18924513242777      0.46085434516257     -0.65717164375271
  H          -2.43326202836634      0.53514182753097     -0.93189342143744
  H          -3.18892706109203     -0.98615694994911     -0.43668792332232
  C          -1.93208432185024      4.04183186232531      2.60670054068021
  C          -1.69336648506599      5.32166052632628      1.80631767321222
  C          -2.68242102521102      4.37016473154518      3.90179149066992
  C          -3.62820220101700      3.46772952863671      0.91259757740234
  H          -0.94694200220266      3.63237153979295      2.86425099192928
  H          -2.62133074374796      5.85667594995650      1.62283004258489
  H          -1.02566460562201      5.97257651365668      2.36641249506834
  H          -1.22214217300696      5.08591206061741      0.85596846747823
  H          -2.76519477388830      3.49298242465910      4.53986779429693
  H          -2.15602298871908      5.14703671635462      4.45089865153256
  H          -3.68529940465607      4.72584369081153      3.67783401650752
  H          -4.32428677171433      4.15379985322188      1.39695585346015
  H          -4.19498431811381      2.61752618305745      0.53609231201435
  H          -3.16659945598174      3.96925969031043      0.05525658307439
  C           1.14365432841473     -2.35998222709120     -0.21535530373095
  O           2.25731898731844     -2.08781905935203     -0.61729102269613
  C           0.83774894719663     -2.35780921584126      1.23735658521604
  C          -0.46086420902337     -2.37518182656047      1.73926315360823
  C          -0.67216741120551     -2.41541541374446      3.10593295739178
  C           0.39995977133061     -2.43345718603334      3.98379679509584
  C           1.69457293143283     -2.39897610960738      3.49252631984435
  C           1.91006007857299     -2.35907041960349      2.12951289875798
  C           0.03029292793105     -2.72639138391648     -1.15440696300531
  H          -1.30473130716379     -2.33760690203408      1.06900562437904
  H          -1.68059853670775     -2.44596524525299      3.49545506789488
  H           0.22549427403675     -2.47411311379158      5.04925424904318
  H           2.53304550082695     -2.40884668895702      4.17299265630686
  H           2.91302199245640     -2.34245400951712      1.72849547816124
  H          -0.51768098977519     -3.59514656679562     -0.79911674255947
  H           0.43591552459647     -2.91819459763887     -2.14472645978730
  H          -0.64702498477095     -1.87500374635766     -1.21781624652054
