95
Coordinates from ORCA-job A3R E -121.870664675670
  Ru          1.13644011009990      3.63118966280404     -0.22623843603879
  H           0.02074231249617      2.23143432217631     -0.62972614975251
  N           1.63533431983111      2.42871467636897      1.41856260884057
  C           2.17695639728726      1.19440472456135      1.14791806903916
  C           1.32119346728160      2.75423960778402      2.67521968546596
  C           2.24062363529391      0.22891529908150      2.19512426030442
  C           1.41807418938966      1.86365059679908      3.72627168125743
  C           1.86192767387392      0.55998677709341      3.46074717653818
  H           2.61353623502440     -0.75610962086773      1.95807712779157
  H           1.16823529949428      2.16844585984414      4.73018463478568
  H           1.91794501688880     -0.16207537822136      4.26240061261283
  P           2.81900773326101      2.32923830550502     -1.18936298062807
  C           2.72664863149321      1.70758931009110     -2.98255335866087
  C           4.59743181907216      2.98063809229298     -0.86048308310648
  P          -0.05111102769519      4.78025698862514      1.43552450022957
  N           0.26495205937915      6.43665465418340      1.46225061359675
  N          -1.69155880539387      4.64878165590644      1.92756561734790
  C           2.61429863945357      0.91035520508222     -0.14817395781222
  H           0.83161607620991      0.18584815107242     -0.51910250610881
  H           3.16094643976826     -0.00628172282018     -0.32635333910714
  C           0.90319933457966      4.17618420861498      2.90324191150289
  H           0.40507552148253      4.30116368882937      3.86376824338517
  H           1.80858831685811      4.79618338188465      2.88978553328266
  C           0.70601644135406      4.57164220911835     -1.74377805252830
  O           0.47592281560433      5.14942548232159     -2.72223102364396
  H           2.16905185319357      4.67518385490005      0.14500473983695
  C           3.36693925954271      0.33302410769105     -3.16793550530433
  C           1.24453483108989      1.58836300629239     -3.34979243951798
  C           3.34650633859466      2.73622651032576     -3.92698909623527
  H           2.83187661566249     -0.41769418274988     -2.59096303823516
  H           3.30648791256437      0.05107121021446     -4.21901676732525
  H           4.41149865903349      0.31979436292080     -2.87533615866439
  H           0.72614011834382      2.53705227053909     -3.20659134820305
  H           0.74926971663747      0.81704610915876     -2.76739550276282
  H           1.14980848886896      1.31495465993300     -4.40049019014243
  H           2.97067955074133      3.73156067914874     -3.69196631263035
  H           4.43109418367314      2.73963902568503     -3.87166573547158
  H           3.06985322239821      2.50323001604870     -4.95529117733490
  C           4.70805864371531      3.10576423941874      0.66196062781164
  C           5.69529970112896      2.02692418497420     -1.32620728259160
  C           4.78091722050554      4.37383767289572     -1.46281699437881
  H           4.62871612004712      2.13333505179249      1.14531360069306
  H           5.67127582355503      3.53915027093613      0.92942414550708
  H           3.92183043038303      3.75518678846509      1.04735754269577
  H           5.77091743453264      1.98266824302293     -2.40913359751081
  H           6.65657153717641      2.37036305817407     -0.94289934093831
  H           5.52017915707952      1.02441496289188     -0.93876196527159
  H           4.97270627181374      4.33902690490619     -2.52981670045435
  H           3.88486777022975      4.97165370915137     -1.28633288701996
  H           5.62593833202942      4.87203190049515     -0.98840149842496
  C          -2.42066244791842      4.23005827940507      3.12826614847111
  C          -2.09672277573104      2.81961354128434      3.62945986202172
  C          -2.31819605333082      5.23995190394571      4.27846802126827
  C          -2.56396802926143      5.18671505541969      0.89611574626450
  H          -3.47540985203512      4.22002993237997      2.82298430216090
  H          -1.03268666200663      2.61660795307873      3.61725630025994
  H          -2.59194695354355      2.06889244406766      3.02092974461542
  H          -2.45721542231584      2.71088001811501      4.65009395883984
  H          -2.46824130204402      6.25186715984216      3.91286243283274
  H          -3.09039106763044      5.02611187169762      5.01459902294594
  H          -1.35497208920975      5.18345223964048      4.77864878702787
  H          -3.14047463006200      6.04091750106692      1.26631949477138
  H          -1.95406070587152      5.53303636731312      0.05797069179884
  H          -3.26847650341328      4.43316016120794      0.52659693655094
  C           0.17474628113487      7.20619488760597      2.69433062012766
  C           1.52593093420616      7.81076414540790      3.09025542191199
  C          -0.88915018092458      8.30490922995924      2.62222996955602
  C           0.50769791810055      7.19907433449444      0.25645807939458
  H          -0.12071594229966      6.49748678323409      3.47143589588626
  H           1.78733827549663      8.64234653847519      2.44134968106706
  H           1.47801826254571      8.18037115634493      4.11174488319924
  H           2.31288194976405      7.06393617985273      3.02452876390667
  H          -1.82557789722818      7.90462649830555      2.24128632377398
  H          -1.06122319415239      8.71554188453214      3.61439082104585
  H          -0.56870277329144      9.11333037286545      1.97045172790426
  H          -0.34991044974283      7.82059744156539     -0.01808423298035
  H           0.71702571193526      6.50528719787932     -0.55646023940367
  H           1.38095829438672      7.84099636029379      0.38108895567140
  C          -0.72800988207105      1.35984143618755     -0.64264347858064
  O          -0.07817206523905      0.14803642292530     -0.90108582758194
  C          -1.74512240026065      1.64005144582425     -1.72392456437883
  C          -2.13658392061875      2.94062541213043     -2.00435913162464
  C          -3.10177284239288      3.19189902474032     -2.96119174541660
  C          -3.68301526978350      2.14050809975642     -3.65032258753963
  C          -3.29409919240390      0.84057916678578     -3.37669837212400
  C          -2.33229962599327      0.58909791641162     -2.41470232193523
  C          -1.44117233981845      1.31390253888702      0.71119535312558
  H          -1.66690685727560      3.76209148374880     -1.47513842519630
  H          -3.39414859627052      4.20970065610561     -3.17454160644791
  H          -4.43353629488084      2.33556127257817     -4.40218073765217
  H          -3.74126846880523      0.01738276776324     -3.91446642230231
  H          -2.01826685771491     -0.41972347523433     -2.19685941318143
  H          -0.73531962874456      1.07985724235068      1.50698017920117
  H          -2.19966842290410      0.53272217645985      0.68465598090185
  H          -1.91312187530839      2.27180421793565      0.90830849312241
