95
Coordinates from ORCA-job TSA2R_3R E -121.867253856550
  Ru          0.14306926357498      0.59761615169292     -0.41569489208828
  H           0.30722279141470     -1.18148508582941     -0.76272365167251
  N           1.38102197733102      0.13454992641410      1.21349764364551
  C           2.62513945976101     -0.33482578753801      0.94377996645388
  C           0.95596435572507      0.21219934599734      2.47660222571623
  C           3.43386999383439     -0.81538723871215      1.99083171750955
  C           1.72517462959805     -0.22694081992320      3.54396299675235
  C           2.98092092757053     -0.76851664643157      3.28636214715376
  H           4.40778269300228     -1.21453009405429      1.75386711339637
  H           1.35008890352795     -0.14793827642095      4.55160444096215
  H           3.59276393640461     -1.13276476769745      4.09814487260583
  P           2.22193641624042      0.86711592812464     -1.43733627383110
  C           2.55758428446739      0.36782647968806     -3.23759384954168
  C           3.13992217353574      2.50822921687239     -1.06876635539677
  P          -1.48440183502686      0.48874724647754      1.23256013434824
  N          -2.55606679113960      1.78057138711013      1.32314021667073
  N          -2.52547492662760     -0.78641679725825      1.71210936241893
  C           3.05614025025906     -0.38614635157191     -0.43280034104311
  H           2.52051097311333     -1.55714506078110     -0.86270135859255
  H           4.12957487479504     -0.50198337491981     -0.56937029890494
  C          -0.37866117779755      0.85074153227806      2.68483666356654
  H          -0.79577250660966      0.64371663134098      3.66875582522152
  H          -0.24337082847858      1.93629462046423      2.58311833399024
  C          -0.88562927700867      0.99629930825197     -1.88559171376024
  O          -1.51321402025156      1.29949594502388     -2.81035739810742
  H           0.14697123606969      2.07072231752122     -0.01103350324003
  C           3.94099175439843     -0.25035565782138     -3.43353579367929
  C           1.51504885600589     -0.68773072293446     -3.61417301746073
  C           2.34458342402917      1.56557008023134     -4.16367662166703
  H           4.01409503147517     -1.18812777351393     -2.88845325414329
  H           4.08346326700492     -0.46765001376230     -4.49186632141607
  H           4.74317854256873      0.40803209352384     -3.11623127455927
  H           0.50229240756741     -0.30982067323672     -3.47355529277763
  H           1.64668552227763     -1.59314408731958     -3.02751840532098
  H           1.62871103247366     -0.95643586128410     -4.66385205217173
  H           1.40440100826081      2.06098287414847     -3.92178137070156
  H           3.15670508296647      2.28447371448939     -4.10318937966887
  H           2.28796009063323      1.22026551661733     -5.19584961405569
  C           3.16762803016874      2.66110230891984      0.45498915963018
  C           4.58378042478032      2.54256282235132     -1.56458066370370
  C           2.33282276602739      3.67608555658963     -1.63854353205176
  H           3.77940720942160      1.89291140957674      0.92505428397362
  H           3.58893766880258      3.63095430175365      0.71861275457121
  H           2.15758250139120      2.61032522111155      0.86129769777039
  H           4.64616393017282      2.56040032310792     -2.64855490713437
  H           5.06752095877145      3.44602624493688     -1.19227987812862
  H           5.14375875828371      1.68741728821130     -1.18950127816832
  H           2.47699282022897      3.79236696355259     -2.70709474345861
  H           1.27076302843888      3.51773632264244     -1.44327864743209
  H           2.63536872061105      4.60588984911621     -1.15807355328559
  C          -2.53011305399867     -1.85509675385450      2.70882435733109
  C          -1.28035320027070     -1.97700026014279      3.57262575437099
  C          -3.75096794050493     -1.70917331057228      3.62724052555655
  C          -3.41369553279489     -1.09827453327756      0.60071117948557
  H          -2.63984957164908     -2.80384664411137      2.15862898004945
  H          -1.28549135319012     -1.25198716219065      4.38203380889036
  H          -0.37768902028642     -1.85192712151676      2.98416031113977
  H          -1.25856139555361     -2.96931646062700      4.01863855582943
  H          -4.67637586581306     -1.69522290433626      3.05897667454691
  H          -3.78786506583633     -2.54731411656329      4.31864867485638
  H          -3.68621436660908     -0.78765429623102      4.20083311668107
  H          -4.45021410782066     -1.17330158915884      0.93784427882489
  H          -3.35499901912679     -0.29803349782230     -0.14123226016177
  H          -3.14672909084516     -2.04404679814245      0.11464204505622
  C          -3.31912323515464      1.98670769069352      2.54658575607713
  C          -2.97033414769077      3.31480238526570      3.22453984055043
  C          -4.82923539030028      1.89660795722491      2.31990654743982
  C          -2.86503471266992      2.64565483937492      0.20642413999929
  H          -3.02859932712361      1.16982115805477      3.21589269707784
  H          -3.35680504942565      4.15510976952595      2.65379877040956
  H          -3.41313342982681      3.34796303506014      4.21710722034762
  H          -1.89380205627565      3.42867522663299      3.31957920913771
  H          -5.07773815365423      0.98641852824255      1.78210903688002
  H          -5.34373494870483      1.88592135124522      3.27777618222198
  H          -5.18784027002488      2.74950584358363      1.74976664450191
  H          -3.85691568205869      2.44584476354252     -0.21007227293281
  H          -2.11654087404618      2.48776780439184     -0.56951498590896
  H          -2.81812718383479      3.69292688354549      0.51071872497042
  C           0.55577511235139     -2.36143960085727     -0.86469724367299
  O           1.83556925023916     -2.56153811775540     -1.22720687570196
  C          -0.41947049195098     -2.90992383981416     -1.88738194687589
  C          -1.58715529817178     -2.25201732574320     -2.23726717789865
  C          -2.46564099433536     -2.81244801748621     -3.14710008703454
  C          -2.17859601992211     -4.03823726205124     -3.72259117894760
  C          -1.00670274851343     -4.69586519647725     -3.38806827315732
  C          -0.13327286233509     -4.13636563068868     -2.47455058458198
  C           0.23050413678288     -2.98951978833921      0.50280086496039
  H          -1.80172009393442     -1.28114930022051     -1.80390438019012
  H          -3.37107057572400     -2.28574238500918     -3.41258580257656
  H          -2.86180509466842     -4.47496967524922     -4.43663344597529
  H          -0.77184057242497     -5.64783856428958     -3.84212757309779
  H           0.79121943138946     -4.63054185822266     -2.21568860689369
  H           0.92672867209330     -2.62749430169309      1.25866381385920
  H           0.35312975242944     -4.06855209784467      0.42259275340446
  H          -0.79147917225994     -2.76777266322289      0.79498391195805
