21
Coordinates from ORCA-job NEB E -41.479431582930
  C           0.78928687827126     -0.68690444886447     -0.12973005058821
  C          -0.08516583789458     -0.80821130978786     -1.22611065578421
  C           0.56227583366803     -1.51883220658214      1.08120109344115
  H           1.84960496438105     -0.60681381755190     -0.34115718492481
  N           0.40237456465247     -0.49523799287105     -2.47990937706240
  C           0.21299727874417      1.27619578927659      0.49386681034277
  C          -1.16117049116646      1.05063270634447      0.63696508777156
  C          -1.93549556471184      0.74980602343848     -0.47579156546367
  O          -1.34276147240630     -0.87022328515376     -1.07563597407645
  N           0.97948509522740      1.63427990986663      1.56843903763694
  H           0.56667537400348      1.68637079556085     -0.44535636902437
  H          -1.52835086388499      0.78163584058793      1.61614342542927
  H          -1.71712442558677      1.24641497613669     -1.41134450419819
  H          -2.97147248049029      0.49001300406405     -0.33054538550284
  F           1.31143212764042     -1.09283468348569      2.12951857311471
  F          -0.68749276677397     -1.59341936196099      1.53281082423482
  F           0.96078128430733     -2.80413797864086      0.88679796443109
  H          -0.24960749306332     -0.63893706177124     -3.23484103890619
  H           1.36198567808847     -0.71051425142726     -2.68925693860454
  H           1.97721710213830      1.66371179103989      1.43499468271330
  H           0.70452521485614      1.24700556178166      2.45894154502027
