23
Coordinates from ORCA-job P E -35.427492157660
  C          -1.47967811305851      0.28901411648214     -2.59391650644375
  C          -0.27800963227551     -1.88477766320749     -1.41009794620829
  C          -1.66621059409628     -2.03610044505160     -1.93723004265875
  C          -2.25072831126846     -0.99692361229483     -2.51220680836314
  C          -0.86424353114297      0.60639506688007     -1.21483885946344
  C          -0.13450421997360     -0.59042048524597     -0.57696227691045
  H          -2.15453318127790     -2.99352426122191     -1.84534115467057
  H          -3.24239315287950     -1.04807243573202     -2.93721473458966
  C          -2.33672851818200      1.46590359282030     -3.03341363189077
  H           0.00668612272096     -2.74870030301247     -0.80995961046038
  H          -0.66398468150695      0.18432615082071     -3.31784765698718
  H           0.42061858602725     -1.80374115616250     -2.24915344707484
  H          -1.64784068488662      0.95326591691474     -0.53814808139186
  H          -0.55468359318585     -0.78246191073492      0.42544666586615
  H          -0.13415322674025      1.40902740609494     -1.32258022165459
  O           1.21785815323897     -0.20243691154190     -0.43525748687314
  O          -2.01573445419411      2.25105721951023     -3.87592859658054
  O          -3.50690802580531      1.58499257020355     -2.38127319919379
  H          -3.63912330762595      0.86599526691836     -1.74733274775114
  C           1.99824251584888     -1.03477806382458      0.38353997470225
  H           2.94863320358723     -0.52216273720296      0.51902173647208
  H           2.18180821896324     -2.01230605339072     -0.07554135281182
  H           1.52385042771324     -1.18478126802119      1.36150598493761
