23
Coordinates from ORCA-job R E -35.343844601190
  C          -1.62912753662894     -0.26529562995058     -3.31948556755171
  C          -0.06380924440422     -2.64456272815166     -2.35079053698131
  C          -1.25424388436868     -2.25863394702445     -1.90461390385660
  C          -1.87560988019568     -0.98619846228310     -2.22092139219176
  C          -0.87229964034489      1.54042696155187     -0.03637850035811
  C          -0.27295723165173      0.39884354284077      0.27070778444190
  H          -1.81226823766756     -2.89766280465942     -1.23172935886932
  H          -2.62150294202282     -0.64818954037071     -1.50928848764003
  C          -2.31839752224271      1.00477363744072     -3.64184975461917
  H           0.36370134677512     -3.59516861132936     -2.08053654396980
  H          -0.97757102788131     -0.63153307874647     -4.09763609709591
  H           0.53318741473112     -2.01015182452237     -2.98391995764351
  H          -1.78541136714656      1.82922211815072      0.44975649662692
  H          -0.68895328884827     -0.28748332344641      1.00349655071408
  H          -0.42586129815266      2.22853148592972     -0.73185525383230
  O           0.87968506243059      0.00233751630479     -0.31933508747797
  O          -2.57084670931577      1.33988924028964     -4.76799985458919
  O          -2.66651511693204      1.77657233635944     -2.59652710828143
  H          -2.28543999568985      1.45615974312137     -1.76160410155561
  C           1.54469420213736     -1.07509654723423      0.29901655613988
  H           1.90868136621029     -0.78128638680398      1.28918750303165
  H           2.39360587237527     -1.31898266313234     -0.33658765001913
  H           0.89244965883396     -1.94913103433395      0.38894426557841
