23
Coordinates from ORCA-job TS E -35.328300373350
  C          -0.81525796556384      0.58630176220068     -1.34838620927089
  C           0.33074924183623     -1.76798135114778     -0.20471716709954
  C          -0.98991057143876     -1.67812669285468     -0.50022868542399
  C          -1.56395445053436     -0.54353654560442     -1.09983963078563
  C          -0.23548543125438      1.16116961614870      0.63644855053638
  C           0.60521315012126      0.22714602309336      1.17203671120337
  H          -1.66579087406399     -2.43686525975259     -0.12777423679220
  H          -2.64480240122787     -0.51474337902068     -1.17190561798380
  C          -1.41722011859574      1.83324702563089     -1.88073735306240
  H           0.69267866605085     -2.61253195322656      0.35968008762323
  H           0.22642352547793      0.48811970748635     -1.61254895060568
  H           1.07210763241414     -1.20016439723658     -0.73504730219969
  H          -1.23928897140411      1.21944477465692      1.01613498460645
  H           0.27574375218078     -0.49714712510463      1.90446710791835
  H           0.19400060572884      2.06274301937264      0.23654931289673
  O           1.94538021720604      0.36432858881605      0.99502345572676
  O          -0.83090740866323      2.58580544575891     -2.61068926407422
  O          -2.67586008075193      2.10800849250125     -1.48114812175992
  H          -3.01598050593746      1.42588802257594     -0.88707968868744
  C           2.76621457363615     -0.53333043418160      1.70093832701876
  H           3.79235259336639     -0.22616619086613      1.50835187126934
  H           2.62350964788592     -1.56125250016534      1.35321584069483
  H           2.57008517353114     -0.49035664908071      2.77725597825120
