17
Coordinates from ORCA-job NEB_reactant E -34.608315031470
  C           1.70084528953194      0.32569381700345     -0.02931738358239
  C           1.67974643653517      1.30098926281644     -0.93857091123726
  F           2.11907341575425      0.47252410198841      1.24405719277634
  H           1.37990810842960     -0.68227379444226     -0.23249104328203
  C           1.17681376004731      0.96769619328188     -2.32950757611754
  C           2.62769910799118      5.48535542235367      1.05981246834059
  C           2.87762587457547      4.53849214137180      0.17696061284750
  C           2.54500493652287      3.09339671287225      0.38080884938934
  O           2.03884356488079      2.59100915174136     -0.85170828148221
  H           2.90254725220839      6.51024263109017      0.88272181060599
  H           2.14885979391057      5.27296972360258      2.00158413486950
  H           3.35202873201838      4.75668920934181     -0.76874942665492
  H           1.80353781200490      2.96909553899913      1.17764303323877
  H           3.45314719155440      2.53827587551416      0.65613105657453
  F           0.10122111490853      1.72253342453935     -2.64551543418335
  F           2.12092207143356      1.23814743299212     -3.25806070301903
  H           0.89137553769269     -0.08983684506632     -2.43389839908383
