26
Coordinates from ORCA-job NEB_product E -35.680900894460
  C           2.71878043149119     -0.76537369029151     -0.78270303956255
  C           1.58710755479259     -1.37950142270059      0.02685330103928
  C           2.29536399715075      0.63274677196189     -1.22869402896797
  H           3.60235575970946     -0.66686242542606     -0.14635832528532
  C           2.02103989582287     -2.42344348389486      1.02312041092978
  C           3.03859580603952     -1.75918086882463     -1.94682686477525
  C           2.72902092533042     -1.18499251017012     -3.29726480791820
  C           1.81939046527229     -1.68615578263306     -4.11140245396362
  O           0.43573324550409     -1.05960564551991     -0.12518310980339
  C           4.49733425147471     -2.24848273899662     -1.87958115912718
  H           2.39738175449491     -2.64021432553320     -1.81488330621350
  H           3.30985320650857     -0.32341252794449     -3.59105806253396
  H           1.22112733909084     -2.54156888621622     -3.84093183584119
  H           1.62998590703311     -1.26251988264429     -5.08300888257543
  F           3.36479157426272      1.33756958726085     -1.72492124587631
  H           1.91708828845523      1.20193107490724     -0.37307648966711
  H           1.53315992371726      0.59524079981478     -2.01054138160066
  H           2.76313488172080     -3.09090477135067      0.59418930596485
  H           1.16231123961225     -2.99085343617243      1.37167931972585
  H           2.47354597215842     -1.91635831104348      1.87437515633898
  C           5.53892333709380     -1.17501822728934     -2.17479794428464
  H           4.61291601550990     -3.06348636213484     -2.59804714214973
  H           4.68000636970400     -2.66350218745029     -0.88435311231464
  H           5.52045119415421     -0.89504666744299     -3.22408933630398
  H           6.53281098844298     -1.55256449685119     -1.94464203110581
  H           5.36758967545314     -0.28073958341396     -1.58205293412830
