19
Coordinates from ORCA-job NEB_product E -28.701568187950
  C           1.49261584118581      0.00219151828625      2.10241116170798
  C           0.87348628847407      0.84988476317275      1.04507487273654
  C           1.26383381071047     -1.47124894278648      1.77115077331453
  H           2.56722344533177      0.20198366185760      2.15081205291633
  I           1.60302493422814      2.91196609272340      1.08316262586301
  C           0.90684647834650      0.42507585796986      3.48578354693427
  C          -0.59758958609329      0.35419883813815      3.48030453363741
  C          -1.38435099555510      1.41256221952054      3.52572202455874
  O           0.06755354077004      0.55900272815850      0.23578271502290
  N           1.52860226094389     -0.38742970706864      4.51808146771346
  H           1.21441815062376      1.46137796194770      3.66616483355263
  H          -1.01780551578818     -0.64335211375947      3.46419126592096
  H          -0.98807710435454      2.41493954457357      3.55126407595882
  H          -2.45736303415392      1.32513055319809      3.53211838036773
  H           0.20284457869006     -1.70222552320042      1.72618525461385
  H           1.74271405732198     -2.09352481590798      2.52137760360972
  H           1.69967687023125     -1.70355377476447      0.80178929479472
  H           1.10778330391591     -1.30988606413284      4.54971001994770
  H           1.40176267517138      0.04190720207387      5.42641349682872
