19
Coordinates from ORCA-job NEB E -47.099867452970
  C           0.09958416613526     -1.04393219869267     -0.35582743476025
  C          -1.12477307506908     -0.37925115880712     -0.89817767707432
  Cl         -0.37472103550642     -2.07840901135204      1.04773649473395
  H           0.53654959382454     -1.71254204006532     -1.10108514673288
  N          -1.66329123488931     -0.84695380383484     -2.12029342720905
  C           1.00202234560851      0.14086383771688     -0.00273784343065
  C           0.06384080540871      1.27925320178554      0.15860396706432
  C          -1.31336344377679      1.12355893665730      0.70159060202170
  O          -2.01854850954760      0.21778044839162     -0.09267614513980
  C           2.01477540743407     -0.00628425323968      1.15093448542538
  H           1.62416612813109      0.32063283946192     -0.89185537030422
  H           0.51180387205761      2.25821375766003      0.27611195263988
  H          -1.86893756331318      2.06572582217701      0.66634739984002
  H          -1.28674864695765      0.80176942053832      1.75619019069156
  O          -2.78849279422201     -0.49467872970356     -2.41098250601864
  O          -0.92753127727258     -1.53029465907542     -2.82033708525866
  Br          1.21272942916741      0.06036098398547      2.92011249704912
  Br          3.02263878652963     -1.66603816200979      0.96272322561700
  Br          3.27829704625780      1.49022476840636      1.05362182084552
