17
Coordinates from ORCA-job NEB E -30.196497562160
  C           0.13471251221252      0.56287128019958      1.34876668181905
  C          -0.96794066205950      1.29443837133782      0.95688277644126
  H           1.10460533422682      0.98787600867974      1.13713666548568
  H           0.07430494175056     -0.00819892115177      2.26291211464263
  Cl         -2.52852468858759      0.81735718427899      1.65096062811887
  C           0.14398061206849     -0.76756553349636     -0.13774819436433
  C           0.10975134981457      0.05964317899619     -1.25019665973275
  C          -1.02391431973907      0.91126136922972     -1.42366682605601
  O          -1.01604709994987      1.91526143064290     -0.16111420428150
  C           1.36558638313141     -1.60601465792402      0.13782600492471
  H          -0.77333009908367     -1.25885928417089      0.16887509999260
  H           1.04934219300929      0.36839011064227     -1.68530895219701
  H          -1.99764914186557      0.43853086433311     -1.31196082843346
  H          -0.98844722702382      1.59919051660511     -2.25939556756244
  F           2.51869498043684     -0.88638690452389     -0.04881452562884
  H           1.41082023693755     -2.45613975007535     -0.55427456652760
  H           1.38405469472103     -1.97165526360316      1.16912035335915
