17
Coordinates from ORCA-job NEB_product E -30.244426460990
  C           2.71179514980332     -2.54760869910794     -0.08899752879433
  C           1.57432890594491     -1.57614234955122     -0.07955453166396
  H           3.62221171973423     -2.00029742649267      0.16518863260792
  H           2.52900383371178     -3.31991914336291      0.66000361354454
  Cl          0.01689960646508     -2.37619366148809     -0.31629789950241
  C           2.85533998170068     -3.19752288232711     -1.47821275279166
  C           3.02449547666591     -2.14124032122505     -2.53351067628923
  C           2.22316410288894     -2.00116928908265     -3.57102150974763
  O           1.61772355768163     -0.40139106525015      0.05626998286855
  C           4.06125972393395     -4.14226263618086     -1.46883912509422
  H           1.96165552696947     -3.78890588114807     -1.69742353984132
  H           3.87098319832701     -1.48192243059801     -2.39373643507949
  H           1.37804436197248     -2.65100988926328     -3.72732714210586
  H           2.37934834213558     -1.23450256912037     -4.30955764364347
  F           4.09760427368223     -4.86787249750882     -2.63003117028122
  H           3.99593668247851     -4.86553217503098     -0.64866412401896
  H           5.00540555590428     -3.59030708326182     -1.41038815016725
