17
Coordinates from ORCA-job NEB_reactant E -30.220863145500
  C           2.42291233654766     -1.14746716168897      0.09452331503686
  C           1.27837291221503     -1.59810237019533     -0.39324271742053
  H           3.29847048015136     -1.03818644717444     -0.51687306652422
  H           2.50767874865992     -0.88962740520419      1.13148030579960
  Cl         -0.10798026463275     -1.80370603987944      0.61904386035244
  C           3.05792182483810     -3.88044186638720     -1.88022896360394
  C           3.04478173990472     -2.79220812930257     -2.63006762588849
  C           1.93215754051786     -1.78642860182051     -2.66195177600066
  O           0.95525630520438     -1.95445063815171     -1.65224854521503
  C           4.16653880061148     -4.88112091885824     -1.86180372285648
  H           2.24250654258494     -4.11565976864558     -1.21152881988362
  H           3.86481209433300     -2.57600049906932     -3.30004627229385
  H           1.37652801439862     -1.88973106546693     -3.60076082711932
  H           2.34604218814418     -0.76965929944674     -2.61991079044507
  F           5.18851414832222     -4.53743538223086     -2.70989273764169
  H           3.80735949709554     -5.86762774420991     -2.18073614810296
  H           4.60162709110374     -4.96304666226804     -0.85775546819304
