23
Coordinates from ORCA-job NEB E -45.272482494090
  C          -0.43109599219926      0.26021883103293      1.11584827571014
  C          -1.64908809775258     -0.33111745662653      0.71244391396486
  C          -0.22774267846262      1.71413106485034      0.84934800943061
  H          -0.05450568149389      0.00596081187012      2.10028043723052
  N          -2.11498045924109     -1.41298774802028      1.42485917830335
  C           0.82737284990860     -0.75061970792500     -0.17337026002383
  C           0.22416161522504     -0.47390858336058     -1.40703931011503
  C          -1.06728659927715     -0.94845092275368     -1.64220627630086
  O          -2.12201069081042     -0.13308341804146     -0.45150559541996
  O           2.08251021170666     -0.39581106060074      0.17313397726978
  H           0.58707376373178     -1.69615439489033      0.30654795469503
  H           0.56388233049018      0.37357196351967     -1.98020983222577
  H          -1.31806825657545     -1.94754461258006     -1.30937947839236
  H          -1.56406684602791     -0.64053321826778     -2.54900972384001
  F           0.96871419622345      2.14143670218301      1.29713150460481
  F          -0.30910371936887      2.10694773932818     -0.42507341351150
  F          -1.13682674928553      2.46901248626820      1.51750059172065
  H          -2.99906987132064     -1.78610523876966      1.11798491755879
  H          -1.93607129335314     -1.45684882705146      2.41298378709915
  C           2.77105221954005      0.54724325259881     -0.62771888682959
  H           2.96673433225800      0.13637681555339     -1.62256291523885
  H           3.71234591537494      0.73140827569225     -0.11412447357141
  H           2.22606950070986      1.48685724599067     -0.72586238211853
