23
Coordinates from ORCA-job NEB_reactant E -45.305420593580
  C           1.49696617309364      0.08490623309128      0.25499161588887
  C           1.77199381524586     -0.89909014327872     -0.62946230018093
  C           1.07127426448002      1.42631773415367     -0.19304323186676
  H           1.57890607827483     -0.06080343313491      1.31448282995385
  N           2.27868539176824     -2.10853704191142     -0.23575696857483
  C           4.25723403908516     -2.78072970788464     -2.82042851287302
  C           3.61333280340488     -1.61948225328859     -2.83497412235245
  C           2.12298312112605     -1.51230941797053     -2.92641085470023
  O           1.57345188873655     -0.65263813277672     -1.93440415006521
  O           5.58372412649731     -3.00569632385139     -2.74844867502733
  H           3.73186391275116     -3.72553692749737     -2.89340950337471
  H           4.12519731774049     -0.67303547726033     -2.76639958035081
  H           1.64972422412206     -2.50346385721674     -2.89709534402918
  H           1.83047696792553     -1.02091773271817     -3.86008157545150
  F           1.94024994128054      2.02313399483720     -1.03984328690171
  F          -0.11635922497274      1.44436934311648     -0.84113493280185
  F           0.93139918939583      2.27092889512698      0.84422348885141
  H           2.12330910997739     -2.90210198630148     -0.83401224544801
  H           2.23172049600974     -2.29837140238734      0.75044634820855
  C           6.43145037777526     -1.88290399057326     -2.64904590241403
  H           7.44462963815188     -2.27591404834583     -2.59258021074805
  H           6.21145910456629     -1.30163838426182     -1.74887499252413
  H           6.33612724356400     -1.23808593966635     -3.52753789321792
