23
Coordinates from ORCA-job NEB_product E -45.316534269920
  C           2.82753294849430     -1.25658086546994     -0.85796808469811
  C           1.55531168168904     -2.07372152908311     -0.52468929878168
  C           2.44411545879694      0.21453667283591     -0.84338095479707
  H           3.56365896888413     -1.40320786844783     -0.05970619052815
  N           1.18738351148698     -2.01330304189765      0.76936948306468
  C           3.45760442151319     -1.77123790246776     -2.19584082193966
  C           3.15332342511407     -0.86927587113218     -3.36104796864503
  C           2.19491268953570     -1.13547401199155     -4.22756213767042
  O           0.96757941386312     -2.72580420931769     -1.34935266690296
  O           4.81838954940746     -2.09384002130042     -2.01571939275109
  H           2.98725493648543     -2.74360570233640     -2.38817060164615
  H           3.75167335991666      0.02561668840698     -3.45296390326015
  H           1.58214208659346     -2.01601508142729     -4.13456862649119
  H           1.97420986238486     -0.47226096074904     -5.04592634697824
  F           3.44049061952369      1.03834646528937     -1.19881919022143
  F           1.40030138975406      0.51480355020222     -1.61722871119392
  F           2.10165708065353      0.60584222233912      0.40756843608497
  H           0.33585462453248     -2.48117907559239      1.03623483186561
  H           1.62557962890687     -1.40848158919396      1.44141681623164
  C           5.76011513909661     -1.04133389206090     -2.02216969168004
  H           6.69543396162042     -1.49208683373165     -1.69399598872657
  H           5.49194917242950     -0.23378284540427     -1.33556240260141
  H           5.90032606931750     -0.62915429746957     -3.02561658773364
