18
Coordinates from ORCA-job NEB E -33.519460173010
  C           0.94864849308559      0.32396449392062      0.58083048074971
  C           0.10906411353570     -0.17462926455903      1.55918046564230
  C           0.80140015676053      1.75475800237222      0.11799512890999
  H           1.98778691147202      0.01156359767405      0.59884251247430
  I           0.85227186713665     -1.95585943756764      2.59131470148975
  C           0.15588695772018     -0.73387063142396     -1.01260090819842
  C          -1.19925483348442     -0.44042410480893     -0.85828355810538
  C          -1.89871542231537     -0.85931222605944      0.27939142618523
  O          -1.12767450819522      0.01040783397141      1.59569870959454
  O           0.77216116300769     -0.22294626993174     -2.10152095031330
  H           0.53618335195057     -1.68436797040233     -0.64401685314621
  H          -1.58461663108237      0.38231073247665     -1.44223714820140
  H          -1.70812347648763     -1.85324165165132      0.66849092756397
  H          -2.92004556327411     -0.53003295496872      0.39798258481935
  F           1.78970688861758      2.04547273337023     -0.78523407690409
  H           0.94040806169533      2.44202676983141      0.96208238799812
  H          -0.15734515107712      1.95592085332672     -0.36553211902731
  H           1.70225762093439     -0.47174050557020     -2.14238371153115
