18
Coordinates from ORCA-job NEB_product E -33.560682636680
  C           1.63122803672646     -0.94075110918515     -1.54063060446797
  C           0.86451804898534     -1.12117242010665     -0.27888973102333
  C           1.41731925264961      0.49513193463506     -2.03282625105967
  H           2.69653753953645     -1.13002896924096     -1.37477439024878
  I           1.51239054327798     -2.84279041700186      0.87210567533092
  C           1.16586784663671     -2.00829979229589     -2.60433745180606
  C          -0.20856011384514     -1.67059029496714     -3.11480137394465
  C          -1.32290349382821     -2.12360859395987     -2.57318651033785
  O          -0.03292901519561     -0.46393793278267      0.12295763660476
  O           2.11460818730936     -2.13800605190937     -3.61482449329897
  H           1.14954511727843     -2.98605921956692     -2.10808520542220
  H          -0.23116864794560     -1.02114355478410     -3.98028955314089
  H          -1.31646659386119     -2.78256724853517     -1.72021643846386
  H          -2.29063958735384     -1.85672597915710     -2.96031652506595
  F           1.99193556097530      0.67315764052354     -3.26561855236040
  H           1.88660263794986      1.21515557259742     -1.35551559601176
  H           0.35178294599162      0.72031469164192     -2.13629960939645
  H           2.15653173471246     -1.32157825590509     -4.13045102588690
