18
Coordinates from ORCA-job NEB_reactant E -33.548356964500
  C           1.66994138033062      0.04505964979918     -0.06348649444980
  C           0.71804080212840     -0.81888750547768     -0.38798979728282
  C           2.39029761985948      0.86304059105475     -1.08753962183378
  H           1.96761644419849      0.18910669337261      0.96162397150790
  I          -0.23323326484600     -1.92684337660322      1.18648788160776
  C           0.32621459842271     -2.58492262331239     -4.56312780265033
  C          -0.41611651650541     -2.16062475623039     -3.54839045860835
  C           0.00801180053553     -2.27549077412381     -2.12442512823570
  O           0.22756150048160     -0.95383960122061     -1.61739981259313
  O           0.00330607655181     -2.50853957337959     -5.86660632044036
  H           1.28260367340979     -3.06907845796579     -4.42306655783408
  H          -1.36401319454099     -1.66990088713282     -3.72002987728744
  H           0.93058240730036     -2.86156048585938     -2.03949418255189
  H          -0.77805929260517     -2.75648357785018     -1.52524415257032
  F           3.74287960818497      0.84762598570967     -0.84246620851052
  H           2.08093150551455      1.91487282840699     -1.04094450883967
  H           2.23434970870351      0.47218026393141     -2.09761006198343
  H          -0.85091485712424     -2.07011439311875     -5.97619086744404
