20
Coordinates from ORCA-job P E -28.731332630590
  C          -1.34571673513953      0.65219145819434     -2.11617017700883
  C          -0.88416869063248     -1.88405983098419     -0.67409785492211
  C          -1.52365704756423     -1.80493261404959     -2.02475858982427
  C          -1.73059490800668     -0.67228312532897     -2.67627170811970
  C          -1.12633989259081      0.60203708448283     -0.61434073730554
  C          -0.19227986846816     -0.56747698497223     -0.29199975117501
  H          -1.81060985589474     -2.74716601267148     -2.46997588337748
  H          -2.17457480348597     -0.66861099152493     -3.66137912151037
  Br         -2.75765713342376      1.97790020494660     -2.51830905850128
  H          -1.64431872888365     -2.11918290122192      0.07739436792609
  H          -0.45822588170984      1.03899811661117     -2.62353088194757
  H          -0.16182907365125     -2.70353179539967     -0.66387202687014
  H          -2.07673854415936      0.44681613055526     -0.10018680277581
  H           0.02754222713730     -0.57365598200505      0.78940699590901
  H          -0.68686160407426      1.53804984564672     -0.26627854986768
  O           1.00984087019689     -0.34637400475893     -1.00657865363120
  C           2.11978745751194     -1.07080070047858     -0.54491781588167
  H           2.97608860531806     -0.70436092991424     -1.10785161296514
  H           2.01528145555107     -2.14783934448629     -0.71754295446017
  H           2.28718215196950     -0.89959762264085      0.52593081630888
