20
Coordinates from ORCA-job R E -28.641100321450
  C          -1.59570026265290      0.02537940079911     -2.60709507067221
  C          -0.34531732702791     -2.69449972551669     -2.32649598446052
  C          -1.59945960277109     -2.37166388679842     -2.02548206792488
  C          -2.23449818471457     -1.08933882193120     -2.26392983518999
  C          -0.34491524847880      1.84614746971650     -0.11763673856306
  C           0.08479263489499      0.62852424622758      0.16621266150980
  H          -2.24321368680078     -3.11521297255387     -1.57273160030084
  H          -3.30855651224018     -1.06338439701378     -2.13584907470780
  Br         -2.50645880958194      1.64672967325349     -2.90654421120129
  H           0.04494539828884     -3.67588146513310     -2.11807171741904
  H          -0.52959853762058      0.11220221805426     -2.72945950117780
  H           0.33129482460366     -2.00238183279760     -2.79660287566869
  H          -1.18529045001529      2.26834453853277      0.39837641400119
  H          -0.38013375130728      0.01760851563816      0.93385696550242
  H           0.12652939491346      2.44325630304394     -0.87693347444787
  O           1.12466569813709      0.04907120927800     -0.49726131798262
  C           1.60332329926830     -1.15211380651366      0.05573178146478
  H           2.01521721870249     -0.99255727476505      1.05798499561694
  H           2.39481743910435     -1.50250918490924     -0.60439540311119
  H           0.81225646529813     -1.90875020661121      0.10733605473265
