20
Coordinates from ORCA-job TS E -28.625191655730
  C          -1.14228256739043      1.06655897728496     -1.46249140653540
  C          -0.06393290401371     -1.41644279434950     -0.58777995742029
  C          -1.38884545457123     -1.23902570812807     -0.81181531157189
  C          -1.93280149046552     -0.03803553532884     -1.30451228959146
  C          -0.46582087551611      1.41007241268025      0.54438324180161
  C           0.34329241078686      0.39321412442893      0.96206220665501
  H          -2.08820327879226     -1.98985105486583     -0.46928546812860
  H          -3.00730018744433      0.07260948247392     -1.31554495832667
  Br         -1.94879920395038      2.70792641568792     -1.99133501945307
  H           0.27889126566047     -2.32442957684714     -0.11756422359510
  H          -0.11585984440989      1.01686873578585     -1.78383588888438
  H           0.68546492934727     -0.84293182766246     -1.10119531587069
  H          -1.45878520434577      1.48039759260232      0.94897999075749
  H           0.00577472164938     -0.37886569493659      1.63897655748559
  H          -0.00026979836569      2.32653727829103      0.22532318758753
  O           1.68640294846254      0.49324770995851      0.75528436629057
  C           2.48552533439246     -0.49666756413078      1.35411091638436
  H           3.51858057116967     -0.22218131519023      1.14892625610352
  H           2.28108351659234     -1.48501448147092      0.93030913115134
  H           2.32788511120432     -0.53398717628331      2.43700398516053
