14
Coordinates from ORCA-job NEB_product E -27.075684943900
  C           1.60247633774651     -0.95081021503171     -1.15687177131755
  C           2.86676492708078     -0.79537638577626     -0.36301548190643
  Cl          1.10095127502483      0.65371374754941     -1.75361407126639
  H           0.81502412653825     -1.31849848234294     -0.49101732858481
  F           3.14691333874349     -1.98297059929283      0.25975912409397
  C           1.80222423534361     -1.92849436407366     -2.32712467745967
  C           2.87006551705618     -1.45273531471307     -3.26542239141104
  C           2.64627627638546     -1.11359260141312     -4.51977027443922
  O           3.58726739475592      0.11968687372128     -0.21673263291240
  H           2.07825194080003     -2.90031689141613     -1.90742915959119
  H           0.85476621357193     -2.03070450996455     -2.85763374616374
  H           3.86486968383349     -1.38721110568268     -2.84457465407253
  H           1.66109734919994     -1.16425133185405     -4.95347828412256
  H           3.43635138391958     -0.77243881970969     -5.16537465084646
