15
Coordinates from ORCA-job NEB_product E -26.916489307700
  C           1.73251915230668     -1.94168439666524     -0.33266833026414
  C           1.08609857752469     -0.86305252068706      0.50132848816703
  O           1.55435304807650     -1.67421304535569     -1.69130970752650
  H           2.81251050255474     -1.96115442827485     -0.14989092601836
  Cl          1.57264543365770     -0.90599843439213      2.18357637219914
  C           1.12792450901731     -3.30784600679851      0.09413811668085
  C          -0.36722720529185     -3.29495597777347      0.01533300835828
  C          -1.16279951741535     -3.40724721887822      1.06167788875153
  O           0.29086465497832     -0.07090006371186      0.11429943630460
  H           1.53015401708560     -4.05606218483763     -0.59194475683622
  H           1.45552587151981     -3.53737880233962      1.10774443604542
  H          -0.78005767646093     -3.17708726124183     -0.97790719793445
  H          -0.77343743493547     -3.52876713890458      2.05933285647047
  H          -2.23448709165028     -3.38798940912752      0.96674155900348
  H           0.69101315903253     -1.25716311101179     -1.81675124340112
