22
Coordinates from ORCA-job NEB E -36.961528713210
  C           0.39052918017783     -0.83276724890657     -0.77200495629189
  C          -0.97464009362532     -1.02323401188315     -0.45524452873182
  N           1.32593461574452     -1.65874590354296     -0.18313666812721
  H           0.63735658156557     -0.54349432910793     -1.78780125607195
  C          -2.04133346710967     -0.50108007794076     -1.40079799151127
  C           0.45681654203207      0.96229155151398      0.16848881833034
  C           0.16248270610114      0.58624543942577      1.48122737429336
  C          -1.12644327303965      0.15564954600925      1.79670361994658
  O          -1.30841534564546     -1.29633331805502      0.74694569880939
  C           1.82592956922570      1.48433991183498     -0.18242161176869
  H          -0.31003232086458      1.46853635749282     -0.40501212299932
  H           0.98362378307080      0.27146860053517      2.11127616147671
  H          -1.96764367529446      0.69024380408725      1.37677444383736
  H          -1.31150615076022     -0.26899056217289      2.77092229074244
  H           1.04327261449692     -1.96965637443123      0.73792971627767
  H           2.28119572037383     -1.33403175958363     -0.20362615021279
  F          -1.52789493748523      0.36770146995638     -2.33616893815577
  H          -2.81983900367776      0.03505107745136     -0.84626991733936
  H          -2.49936253239955     -1.32746962261770     -1.95654842295110
  F           2.82657309249490      0.79737305856653      0.46611263238607
  H           1.92094252392618      2.53262469232953      0.12743091406169
  H           2.03245387069245      1.40427769903883     -1.25477910600043
