15
Coordinates from ORCA-job NEB E -31.023887402750
  C           0.75430981554664      0.42456215661604      0.46015821095924
  C           0.69291651343737      0.35770379003255      1.85010104253177
  C           1.12871268235593      1.61371551898683     -0.25968920443840
  H           0.15940152037009      1.90092790753884      0.42036568639066
  Br          0.34452524389066      2.37910048205473      2.53763540296114
  C           0.52069984237704     -0.82702460186429     -0.36310309685931
  C          -0.73867092553053     -0.69992853826165     -1.17452635573684
  C          -1.89114648005949     -1.23187984114720     -0.81675015017453
  O           0.72180998093968     -0.48304911496661      2.67354148635485
  F           1.59206626054198     -1.03595485999672     -1.20291699491150
  H           0.48105047780010     -1.68587870867246      0.31952262428100
  H          -0.62564251937608     -0.11823183016456     -2.07861647122764
  H          -1.99463649524065     -1.81594969169245      0.08309783733274
  H          -2.77840861800007     -1.10235554909514     -1.41089516974925
  N           1.63301270094733      2.32424288063211     -1.03792484771392
