15
Coordinates from ORCA-job NEB_reactant E -31.106931000850
  C           2.08616443267025     -0.60070055156550      0.05463312796047
  C           1.61075933812142     -1.60140726497068      0.80950955161652
  C           1.81057593551255     -0.39016884051982     -1.30404758906830
  H           2.74194802857426      0.12986810675059      0.50533320482309
  Br          2.10883834594800     -1.70924911971348      2.63820358842952
  C           2.54952375711418     -3.80501279064852     -1.34539222751321
  C           1.39613736457475     -3.29272833605250     -1.73113437777298
  C           0.33265963567711     -2.82382357849647     -0.78590456814941
  O           0.79596284598170     -2.61791741573070      0.53992824956704
  F           3.46293574687903     -4.21729200825650     -2.22955132197879
  H           2.88223645469500     -3.95232593771856     -0.32692995512321
  H           1.16907920379191     -3.19213270511932     -2.78080986542341
  H          -0.44203190505748     -3.59179756649051     -0.68208539832020
  H          -0.13432600511436     -1.91027136297750     -1.17130272444453
  N           1.61803682063171     -0.16754062849054     -2.41384969460261
