20
Coordinates from ORCA-job NEB E -33.529396140410
  C           0.80785773097845     -0.34056524310987     -0.89397328749259
  C          -0.24890819323640     -1.23476544675343     -0.77257868710054
  H           1.75099770522999     -0.61102747838117     -0.44450006343507
  H           0.89506555370427      0.20101198175139     -1.82566909138972
  C          -1.46809061554041     -1.12856611354105     -1.66302417315841
  C           0.28859703045765      0.95394700287858      0.44603450333937
  C           0.15551665400745      0.15868654042184      1.58251102081593
  C          -0.81610479506047     -0.88972414579102      1.55671723728283
  O          -0.42236757314502     -1.87194337309178      0.36120815838452
  C           1.37400787493376      2.00198018999633      0.40303637602544
  H          -0.61593388315538      1.30105148689162     -0.04427581101727
  H           1.02668827844936      0.02395926561410      2.20709492237735
  H          -1.82464648223337     -0.59085144443415      1.27215754554386
  H          -0.81804066730347     -1.55565267569979      2.41154941859199
  F          -1.24028694902456     -0.33328088867275     -2.75475916135893
  H          -2.31172232186884     -0.68570875736429     -1.11251885257096
  H          -1.76463553511231     -2.11674041415142     -2.03161260886544
  F           2.56260571217013      1.51405086689052      0.88310429227765
  H           1.10645614784855      2.85609688399494      1.03746543338801
  H           1.56294432790060      2.34804176255143     -0.61796717163804
