25
Coordinates from ORCA-job NEB E -47.172397716640
  C           0.24561420792484      0.30430992426051      0.85448791447684
  C          -0.93469297567037     -0.18828094938129      1.63292133666975
  C           0.04028018864238      1.79930215091071      0.50945799860535
  H           1.10567006907662      0.20238577328210      1.52916428092672
  N          -0.61717554369725     -1.47142664869153      2.44410704312960
  C           0.49682955529599     -0.74395851467492     -0.27745115767791
  C          -0.58131311052065     -0.79720412522892     -1.32926016601988
  C          -1.75179345415883     -1.37808117858469     -1.14305157835733
  O          -2.03463312677760      0.23721527966552      1.72714005924013
  C           1.90706494882582     -0.62056649443451     -0.88085225640382
  H           0.52369589785273     -1.72211123066989      0.22136459353790
  H          -0.33828643127581     -0.35530604317733     -2.28360835473098
  H          -2.03390966729156     -1.85205500346160     -0.21691629865009
  H          -2.49079149880481     -1.40218065141731     -1.92407135171054
  C           0.16631956397966      2.23142134879109     -0.94454642454300
  H           0.75430527947298      2.37477286398007      1.10169472413533
  H          -0.95957865834305      2.08079235708763      0.84662482537963
  H          -0.58109525999365      1.74657177053573     -1.56354412039397
  H           1.15243953387492      2.03210138341414     -1.34844192569617
  H          -0.00233382584638      3.30464096412271     -0.99753983335576
  O          -1.54869381433670     -2.20061112215623      2.64902673764060
  O           0.52649860373312     -1.62506091885507      2.80383457776836
  F           2.39712943762639     -1.85988351608478     -1.12604071066727
  F           1.93878785482559      0.01509104861101     -2.07213611592320
  H           2.61966222558565     -0.11187846784314     -0.21236379738033
