25
Coordinates from ORCA-job NEB_reactant E -47.179057134520
  C           1.91275886929042     -0.02661583467397     -0.07689923863278
  C           1.50672033188927     -1.29454774928371     -0.13030540077600
  C           1.37773745614839      1.09234985692512     -0.89860790056849
  H           2.71239346053261      0.20712187135984      0.61298092058414
  N           2.13464520315851     -2.28102660498946      0.75655831162815
  C           2.93094013247688     -2.59878131577018     -3.39144105920940
  C           2.01674569246335     -2.88262045550016     -2.47977865237819
  C           0.78828621614391     -2.05561226357379     -2.26150069078618
  O           0.51245099907336     -1.82866764698930     -0.88168652915115
  C           4.16533681859354     -3.41569623816773     -3.62502453705255
  H           2.85076879949942     -1.74366610399841     -4.04822845197108
  H           2.12334943351381     -3.73820058147887     -1.82557306214604
  H          -0.09249896882500     -2.59903066108098     -2.61732682834153
  H           0.86532066132976     -1.10363607681888     -2.80170161750025
  C           2.44759304165329      1.61140796306740     -1.86295041496972
  H           1.08994666258302      1.90312252261890     -0.22487636202556
  H           0.48989913928960      0.77413912525830     -1.44614001688755
  H           3.31600278301284      1.96332455490064     -1.31229745550106
  H           2.05198258962646      2.43524071767421     -2.45089233213021
  H           2.76997362906391      0.82323952179510     -2.53960161560130
  O           1.83685548015017     -3.43936799438803      0.58345420579044
  O           2.90550261404966     -1.87010199140072      1.59614972171880
  F           5.25910126699641     -2.60760843334983     -3.66972421813990
  F           4.38847865040357     -4.30889292990690     -2.63832489453620
  H           4.13540903788284     -3.96957325222859     -4.58036188141638
