25
Coordinates from ORCA-job NEB_product E -47.187024465710
  C           2.36086597211716     -1.33823279427769     -1.06495163129715
  C           2.01358334059830     -2.19521387944398      0.10679577459593
  C           1.49260415082809     -0.06353358606262     -0.91894114882089
  H           3.41650988053282     -1.05509293507760     -1.01680238882775
  N           2.98340451093660     -2.01655412337521      1.30879023639586
  C           2.08060594999108     -2.12589148126950     -2.36319076850711
  C           2.10052201907516     -1.25878870521295     -3.58821531007133
  C           1.03665574544099     -1.01606443341309     -4.32982081502342
  O           1.08624339378643     -2.91130066686226      0.27709905207972
  C           3.14739845366137     -3.21599100187247     -2.51655938473226
  H           1.10935313102699     -2.62278526530246     -2.26787919691791
  H           3.06653060052654     -0.84542987786935     -3.84266878749334
  H           0.06987527739708     -1.42899056574970     -4.09259205466021
  H           1.08740311037390     -0.39139194500957     -5.20433960355717
  C           2.20285013260312      1.17856100416373     -1.43787586314595
  H           1.25464492979061      0.09095449737984      0.13667302229805
  H           0.55110224385708     -0.21509784319799     -1.44803385370794
  H           3.13246043263568      1.33712429046821     -0.89699736425422
  H           1.56916605158102      2.04969398034507     -1.29209632158253
  H           2.42319500071243      1.08740363987870     -2.49712712818980
  O           2.70458395899788     -2.64620255257351      2.29100531105191
  O           3.91256020008390     -1.25938257875609      1.16439970469792
  F           4.37659287465680     -2.67052049610599     -2.67497024528985
  F           3.22782010056741     -3.98372115235688     -1.40184431159379
  H           2.96036853822154     -3.88065152844663     -3.37285692344679
