19
Coordinates from ORCA-job NEB E -44.478526400040
  C           1.08225692439320     -0.24876121213244     -0.29797083663361
  C           0.62167081641363     -0.07390457815924     -1.62655079568001
  C           0.97013182159925     -1.61890765160944      0.33637149517425
  H           2.07445644171250      0.15353418867283     -0.10078511071750
  H           1.15192671371420      0.65204531825177     -2.24904424426321
  C          -0.10609252519998      0.93715568582456      0.55643887631792
  C          -1.39717430477565      0.55971234178580      0.14336919592219
  C          -1.69309579211244      0.57899001161635     -1.24340844153197
  O          -0.58394905386832     -0.38846200051842     -1.94884852422911
  N           0.14063164115991      0.89363098004034      2.00216412774762
  H           0.34180163944749      1.84446031789106      0.15883625750867
  H          -1.97200102590940     -0.06292731443912      0.81157591571718
  H          -1.48609486743309      1.50159237185928     -1.77869743811492
  H          -2.63262769394195      0.12874836799699     -1.53906408038828
  Cl          1.63989037214144     -1.63270958769063      1.99156277604948
  Cl         -0.64219449763540     -2.31922516765669      0.35051090145214
  Cl          2.02065885516967     -2.70258164732572     -0.64936648110033
  O          -0.60485998104989      0.24616399551502      2.68987650162866
  O           1.07466451617483      1.55144558007770      2.39302990514081
