19
Coordinates from ORCA-job NEB_product E -44.526016774520
  C           1.46597980297049      1.48083143206933      1.45520189453547
  C           1.17185576561554      1.48180493249232     -0.04065700223256
  C           1.17094439128320      0.11404120980515      2.06721921467861
  H           2.55027047534126      1.66110323491006      1.55657402069568
  H           1.38776462477633      0.52128993692745     -0.53349987700196
  C           0.76721451102659      2.66916491173857      2.13831118277213
  C          -0.66195292127140      2.46014147176002      2.53783195085161
  C          -1.67385668234453      2.91919253444231      1.82578120960717
  O           0.77539940723975      2.43451990375627     -0.63930820320425
  N           1.57667444305084      3.12266544553752      3.31704607845009
  H           0.81732207721492      3.49651055303345      1.41423985806647
  H          -0.82276146206047      1.92631387911950      3.46232370773135
  H          -1.52503289915285      3.46039057629278      0.90595305069513
  H          -2.69241859776704      2.75392026219153      2.12813730881908
  Cl         -0.46954389776201     -0.43149032863672      1.63490657613599
  Cl          2.33451101102752     -1.08193046377442      1.43485027744982
  Cl          1.32869665633544      0.15017064749294      3.84138718688128
  O           0.97432156155763      3.57762176499443      4.25028124271804
  O           2.77631173291878      3.03843809584748      3.22082032235086
