19
Coordinates from ORCA-job NEB_reactant E -44.522572064300
  C           1.60656866559518     -0.06641083553217     -0.05934482632775
  C           1.04778202269981      1.12547637606871      0.15421773924705
  C           1.88710873801140     -1.02442284010094      1.03855316274491
  H           1.87611257295374     -0.36755030526866     -1.05561817479648
  H           0.85824904856205      1.79727260730559     -0.67573351968101
  C          -0.32675445542740      4.33421428235031      3.41691363834449
  C          -0.13005605853258      3.12022433480799      2.91966695872695
  C           0.08268068736453      2.81197817391822      1.47798915550488
  O           0.70377656351071      1.54763717723679      1.38074212832098
  N          -0.55067002417366      4.53401105297687      4.82205455109905
  H          -0.33876094645093      5.25166869296981      2.84803311835910
  H          -0.12550874602913      2.26505262563310      3.58506566679065
  H           0.69501021652540      3.58658612360133      0.99568289050486
  H          -0.89672053123178      2.78826017589266      0.97213695434046
  Cl          0.38592315124284     -1.46434564265285      1.90455676173388
  Cl          2.61617756221400     -2.50979002707126      0.40613311161569
  Cl          3.00954974087563     -0.31604782270097      2.23727806273518
  O          -0.58756012303200      3.56333012090745      5.54247658283686
  O          -0.68820808467778      5.68165572965802      5.18389603790026
