23
Coordinates from ORCA-job NEB E -43.817541572820
  C           0.36635516407496     -0.27407002772303      0.67737200047315
  C           0.11882348832620     -1.67147695486512      0.63460148653204
  O           1.60875503887733      0.18469318199045      0.27573703126312
  H          -0.00078273981411      0.23513296165374      1.57185171624017
  C          -0.59819802891096     -2.43215322338175      1.70599113508349
  C          -0.48662247776960      1.30951706631222     -1.32810992797921
  C          -0.65326163624182      0.02087289160142     -0.82915907204286
  C           0.02169869479118     -1.15288345803655     -1.54494682547928
  O           0.05046248076718     -2.20320867565148     -0.59257289351397
  N          -1.40054257687752      2.31508416667065     -1.03921348421933
  H           0.38094055057796      1.62552670694033     -1.88414565360261
  H          -1.66678844492203     -0.18433516706399     -0.48437494136063
  H           1.03875246886411     -0.86335045972660     -1.83174021354084
  H          -0.53288811514762     -1.50898969728494     -2.41451908955727
  C           1.92293917988175      1.49688601366180      0.68940509183955
  H           1.22337867377051      2.23231622085806      0.28287414613240
  H           2.92039555594003      1.69788025878823      0.30514072233688
  H           1.92564035116883      1.57069002953972      1.78182285933918
  F          -1.96404836546424     -2.33565230088103      1.53152552360266
  H          -0.37618945198058     -2.04292764108141      2.70231916025799
  H          -0.35161450826124     -3.49612095312099      1.63345367966664
  O          -2.37193499407835      2.04922207773421     -0.33959306748784
  O          -1.17527030757197      3.42734698306608     -1.50371938398342
