23
Coordinates from ORCA-job NEB_reactant E -43.855647998550
  C           1.01292694558330     -0.05645122916199     -0.35290484833854
  C           1.08338352158747     -1.12922727398685     -1.13946856368818
  O           0.19176198964161      1.02446487143616     -0.55458353219380
  H           1.63985762281136     -0.01962993449059      0.52829036937147
  C           1.97813255950325     -2.29689906885482     -0.80702747623848
  C           1.45169848194651      1.02167618458647     -3.40683335719326
  C           0.14914346041844      0.85395058015408     -3.19741368285608
  C          -0.49251821519962     -0.42616455132344     -2.78381907116618
  O           0.39865595224538     -1.40320479196260     -2.30094606244972
  N           1.98189600500511      2.29709902226532     -3.76794311200489
  H           2.20111881482054      0.25154863377990     -3.31233383106434
  H          -0.51335804225721      1.69975224304658     -3.32667405190359
  H          -0.97253000969111     -0.88778956956263     -3.65532657226337
  H          -1.26780659267404     -0.20878794233387     -2.03892795314099
  C           0.63837994897554      2.21704015166479      0.05217365798132
  H          -0.14742991686208      2.95286543796812     -0.10577306860021
  H           1.56608742787533      2.57277219793480     -0.40747197442882
  H           0.80254152850281      2.07711386581996      1.12497386873816
  F           2.81185110683618     -2.01612815918805      0.23823949105503
  H           2.60461190977245     -2.54894544316022     -1.66992648382581
  H           1.38440942295203     -3.17361792998189     -0.52239386919831
  O           1.21752719887967      3.23252278066540     -3.88553860566615
  O           3.18335887932708      2.36013992468538     -3.92967127092525
