23
Coordinates from ORCA-job NEB_product E -43.854298943660
  C           1.14509481144864      0.40530471454845     -1.30013126677673
  C           1.41252523279330     -1.09915616679451     -1.15926975555654
  O           2.23911229246603      1.07677565630409     -0.70872604284567
  H           0.20744805327692      0.65128967101143     -0.78302471271877
  C           1.50256340973037     -1.59458313285243      0.27294597606593
  C           1.02541229709695      0.77274997003723     -2.79118933304083
  C          -0.18288931254905      0.15440014271976     -3.43187438055358
  C          -0.13304867552514     -0.57789146657038     -4.52758347236020
  O           1.60803602633066     -1.83205631373981     -2.08845368172495
  N           0.86503137362514      2.24835219894191     -2.90810732896215
  H           1.94235285176212      0.50187034609055     -3.32057575891000
  H          -1.11968521833593      0.37544422530524     -2.93755458002676
  H           0.79782952149720     -0.79718996351243     -5.02156260607875
  H          -1.02184650675978     -1.00212679982481     -4.96023478862162
  C           1.91881819048208      2.03159908307846      0.28875658061407
  H           1.24109443100151      2.80020032691547     -0.09126045092102
  H           2.86742320727066      2.48628869652639      0.56581745278061
  H           1.47098233653628      1.55475914111368      1.16459451207614
  F           0.76971830680244     -0.82918620731305      1.13655827980950
  H           2.54976772370982     -1.54570938835448      0.59612879656819
  H           1.13905127783637     -2.62420659676961      0.34252911497401
  O           0.04582766415120      2.77002870868277     -2.19063944440972
  O           1.53598070535222      2.81054315445607     -3.73174310938116
