30
Coordinates from ORCA-job P E -41.044217070270
  C          -1.43361385564663      0.36788361267926     -2.35049661866275
  C          -0.36539593661877     -1.77486827437420     -1.04690400921365
  C          -1.74099926513566     -1.89830771126383     -1.62021684095025
  C          -2.25695507812419     -0.87654375253014     -2.28277813141359
  C          -0.96267394479695      0.70611914266984     -0.92357003205672
  C          -0.15270171746493     -0.44298706272808     -0.28954803027105
  H          -2.26793220787250     -2.83176647502477     -1.50601484188293
  H          -3.24059608233549     -0.86972263548336     -2.72216846137983
  N          -2.19896625251884      1.52682688336166     -2.84310821162102
  H          -0.16198445748716     -2.60983955314846     -0.37890819334177
  H          -0.56336226544288      0.25714135178142     -3.00690496210826
  H           0.34589296204686     -1.83097167848261     -1.87568148013798
  H          -1.85700827026189      0.89500926020243     -0.32571700687627
  H          -0.55044638907953     -0.59301522398979      0.71946408018918
  H          -0.38013756826123      1.62592577333653     -0.95054996523101
  C           1.35186267724965     -0.09917894393918     -0.11227390357787
  O          -1.57689977838802      2.37048023015984     -3.44743953230012
  O          -3.37580132062406      1.58281960975000     -2.58180839783451
  C           1.49219738173097      1.03628940263221      0.90968068198804
  C           2.09798357297662     -1.31594438742138      0.45009854608035
  C           2.01791021930382      0.32217185093787     -1.42467190380933
  H           1.05302879452431      0.74823153978979      1.86223251965637
  H           1.00813341186374      1.94956264690763      0.57536055160445
  H           2.54350617811397      1.26022085035534      1.07449343527667
  H           1.59955739738093     -1.69638096871275      1.33887037662909
  H           3.11039423921298     -1.03107671455563      0.72715358187177
  H           2.16711435819184     -2.11657195884568     -0.28062034026889
  H           1.57541860510652      1.22799472051690     -1.83009201799709
  H           1.95000754820128     -0.46211995766512     -2.17477926934335
  H           3.07291704415525      0.51960842308426     -1.24912162301766
