30
Coordinates from ORCA-job R E -40.955628223030
  C          -1.44984151394951     -0.23277654687876     -3.02146406656385
  C          -0.36702190797839     -2.96001943104744     -2.30203375332253
  C          -1.50795545417792     -2.42932717854161     -1.86463083392258
  C          -1.94363383569889     -1.07465686261012     -2.10673280844031
  C          -0.96688964557292      1.55518568294646      0.05695858874790
  C          -0.28434565022132      0.45766405005282      0.32575257255624
  H          -2.16918346411185     -3.02443723979789     -1.24904041850384
  H          -2.75479834121645     -0.70737762817683     -1.48959169150081
  N          -1.94840624015701      1.09545802763920     -3.13752526315556
  H          -0.09833943707113     -3.97585283933301     -2.06850416641111
  H          -0.66486014038962     -0.45569773276221     -3.72587260041968
  H           0.34258244417469     -2.40342283547218     -2.89004518604918
  H          -2.03414196126776      1.61161174031012      0.18611404851547
  H          -0.80560800689024     -0.41219640226686      0.70522660026437
  H          -0.49715345030843      2.44954485084037     -0.31768037130925
  C           1.21246358059569      0.30153572026990      0.17846785895644
  O          -1.37524395289422      1.82303367447933     -3.92419273377592
  O          -2.89907441633784      1.42411015710876     -2.45814717506225
  C           1.92119427014290      1.27769433829984      1.12623722255915
  C           1.61131672096949     -1.13219202155231      0.53784376032393
  C           1.63914887528815      0.59293598217595     -1.26509437935746
  H           1.60858201337483      1.10300394389633      2.15357304030748
  H           1.68091845618294      2.30474028509059      0.86573022133517
  H           2.99987888494099      1.14831440505660      1.06575928458502
  H           1.34559576051310     -1.35564488086142      1.56896250666483
  H           2.68457975178702     -1.26864414108615      0.42485414000639
  H           1.10350603299213     -1.84336960829130     -0.11209870455868
  H           1.31305385986288      1.58129099325328     -1.57607690292369
  H           1.20483101032337     -0.14116875904319     -1.94011964635575
  H           2.72253575709531      0.54415025630174     -1.35424914318992
