30
Coordinates from ORCA-job TS E -40.941581909500
  C          -1.66736381340557      0.29296229486735     -1.76419627843667
  C          -0.54553495068819     -1.92381152779196     -0.37901045063976
  C          -1.87217254423601     -1.86240434283529     -0.68199965869501
  C          -2.42293262674276     -0.78575266881749     -1.39190374107838
  C          -1.00137557596540      0.92126895596962      0.36287506340028
  C          -0.17340327045302     -0.02620211630423      0.87330703003812
  H          -2.55813729808061     -2.55771795177152     -0.21973562772466
  H          -3.49776954881676     -0.69499242203125     -1.46956722849004
  N          -2.28854079381460      1.46041946654717     -2.27279882028387
  H          -0.18606178318809     -2.70601453583948      0.26810109931973
  H          -0.61277728455939      0.25890032752814     -1.97518232216601
  H           0.18668013946094     -1.45893418181761     -1.00960207304463
  H          -2.03870243542432      0.94940617338015      0.64905998492896
  H          -0.56054977441236     -0.68654756404603      1.63621705747930
  H          -0.61554944612544      1.80910622484950     -0.10722178737398
  C           1.33649405120634      0.14463247254596      0.89363297027353
  O          -1.55169470465476      2.31066303483478     -2.74316609423204
  O          -3.49715696670661      1.56926351384207     -2.19142244307706
  C           1.61483019654222      1.21574696128271      1.96531404994594
  C           2.04634343058733     -1.14362943809165      1.32070286540904
  C           1.91790543982037      0.62440624847235     -0.43884401469816
  H           1.20967880680641      0.90775736197112      2.92661989375622
  H           1.15854471636883      2.16288367565272      1.69020574789183
  H           2.68608450543986      1.36734419378103      2.07652364813686
  H           1.59880731176735     -1.54870211041424      2.22565150166864
  H           3.09413976555991     -0.93612830033001      1.52662883615988
  H           2.00526988109368     -1.90020688429930      0.54255512880631
  H           1.44163467597818      1.54020280553384     -0.77703901890536
  H           1.81321454375067     -0.12992977023322     -1.21587609976803
  H           2.98009535289179      0.82601010356478     -0.31982921860099
