25
Coordinates from ORCA-job NEB_reactant E -49.436926749930
  C           1.82809575430687      0.18534123110470      0.26991023349957
  C           1.28102491249695      1.35899976343281      0.58916128656773
  C           1.90313738930935     -1.12162251928461      0.98264249522818
  H           2.32332134914920      0.18339032255105     -0.69490858790404
  N           1.40377269617066      2.44869846110487     -0.39285969440693
  C           2.21109900875548      0.09112546237285      4.39807665066094
  C           1.94375699185130      0.99011623026212      3.46370426897019
  C           0.57638733522216      1.20217708168845      2.89144203533423
  O           0.58921637795571      1.84840941102469      1.64293343338192
  C           3.52955627976385     -0.15920483784194      5.01767600673428
  H           1.42852464607527     -0.54480368917475      4.79576985120387
  H           2.71021815542493      1.64105400168846      3.06459719730463
  H           0.02333815265597      1.89811617366725      3.53467718237938
  H           0.00953253606325      0.26285027584032      2.84482725941148
  C           3.36065222591524     -1.57001964443246      1.10912728855859
  H           1.36418824832009     -1.85809710069616      0.37917071207684
  H           1.43910907777670     -1.09590851279534      1.96567239273943
  H           3.81548490236400     -1.66912031259073      0.12742973275806
  H           3.41578190185468     -2.52943055676104      1.61636391019624
  H           3.93709554640858     -0.84325914263939      1.67671954892560
  O           1.01606749005707      3.53766320900082     -0.05133692457179
  O           1.88355805373317      2.18162892468969     -1.47223609252603
  Br          3.44595980450050      0.29019096754387      6.94545318954521
  Br          3.95440315077512     -2.07963079370603      4.86927027301079
  Br          5.00061801309390      0.83353559395049      4.22971635092164
