25
Coordinates from ORCA-job NEB_product E -49.439975420740
  C           2.48635976657438      0.60007205572708      1.84268858850778
  C           1.64634018807548      1.64990956550512      1.19359553631538
  C           2.17857032901164     -0.72907684119685      1.09193834956720
  H           3.53730077952521      0.85311360624486      1.65794588066210
  N           2.10361345917790      1.97763171981473     -0.24330197538262
  C           2.19734310499824      0.60796089814995      3.36598333397945
  C           1.05404988753302     -0.29242610028787      3.75981460096382
  C          -0.18329320978355      0.13863343489633      3.91241943935889
  O           0.68487805261475      2.21686906534216      1.59246919664589
  C           3.43078560015032      0.27780655933208      4.19514474804777
  H           1.91621826200890      1.63632407084162      3.63298216249519
  H           1.29895411148084     -1.33226378217778      3.93249888514316
  H          -0.45270017369972      1.16889028837231      3.75215242645479
  H          -0.97726652974153     -0.53097985462822      4.19194895434810
  C           3.32515851227863     -1.17831610821851      0.19620491973068
  H           1.26775999113337     -0.61085255190542      0.49779890326228
  H           1.97254292080304     -1.51162599543865      1.81940821366913
  H           3.59256622866852     -0.41372666466424     -0.52926165101735
  H           3.03466475869898     -2.07520302348666     -0.34407271385690
  H           4.20682394145828     -1.40778170908746      0.78916449097864
  O           1.25185511365206      2.40540944405545     -0.97333180016361
  O           3.26773020065252      1.79125350848940     -0.50491468267782
  Br          2.97173464546117      0.33703649452721      6.10041512982833
  Br          4.14904698280215     -1.49002038956211      3.81382293775868
  Br          4.86616307646539      1.58686230935549      3.88958612538102
