24
Coordinates from ORCA-job NEB_product E -32.359245023680
  C           3.34459814465419     -0.65630448933665      0.37178518333447
  C           2.73072037098638     -0.83860905976139      1.75932191338887
  O           2.45407250539154     -0.10169327301263     -0.56218636990440
  H           4.16508735476073      0.06297495817079      0.46150906012365
  C           1.23306686746891     -0.71511485806314      1.82928273322311
  C           3.91718407606210     -2.00729613669152     -0.15092306376315
  C           2.82408233581144     -3.03309525963386     -0.09369036210228
  C           2.04382501674802     -3.34527376551305     -1.11372211537563
  O           3.41723203072883     -1.06864866448090      2.72439142026626
  C           5.15157793187385     -2.47916787128408      0.62280474380257
  H           4.19272674910052     -1.83055166387172     -1.19754002355299
  H           2.67717309124670     -3.49684224078089      0.87342576731333
  H           1.25294620644316     -4.07160044829674     -1.02802967629853
  H           2.17971326895406     -2.90588386848859     -2.08981642041464
  H           1.83881007294493     -0.79094469775130     -0.84493635837945
  H           0.93124319616433      0.23634790755729      1.39651017233204
  H           0.90413771195306     -0.77969993240568      2.86259534386369
  H           0.77245161653200     -1.51347915915677      1.24873917216408
  C           6.39222823860718     -1.64252666191870      0.33557153647116
  H           5.34851681495920     -3.51570014734620      0.33736937030443
  H           4.93774624772936     -2.45900847679703      1.69226168198621
  H           6.59688613928676     -1.60942845900296     -0.73285754677047
  H           7.25465113401826     -2.07509767083132      0.83650221414012
  H           6.27072287757448     -0.62465606130295      0.69653162384757
