24
Coordinates from ORCA-job NEB_reactant E -32.344203130240
  C           2.00721264344130     -0.19253508953388      0.31040311246881
  C           1.41848201134507     -1.04789848888191      1.14546502311943
  O           2.55943833608180     -0.49976030317457     -0.92063434218200
  H           2.03522446091485      0.85378804398515      0.58472310534192
  C           0.77243545422147     -0.56428210275432      2.41312296400886
  C           4.51593789281929     -2.86136320882532     -0.34909605193842
  C           3.51686268925812     -3.08612880724371      0.48575644448503
  C           2.06914919172466     -3.10220934413735      0.09295355593219
  O           1.25879424753103     -2.39981007488364      1.01951153021269
  C           5.96015908496383     -2.82704509727350      0.03735111279161
  H           4.30705384089325     -2.66628179202354     -1.39291030487305
  H           3.70204227795280     -3.26878733104815      1.53670086454494
  H           1.68353032139297     -4.12797978519193      0.13283849363484
  H           1.93967551932397     -2.70819740872438     -0.91915911870216
  H           3.24900833322088      0.13896664905021     -1.12424092408666
  H           1.27456018284190     -1.00383902469068      3.27339913551663
  H          -0.26623014997098     -0.88761509649755      2.43511485144852
  H           0.81411094083741      0.51705935846626      2.48664686157073
  C           6.55812053742244     -1.44305833828585     -0.21791566566170
  H           6.50898321301826     -3.56572543395763     -0.55365314045397
  H           6.06985554647717     -3.08567656899849      1.09198515532823
  H           6.46268081465081     -1.17516791951478     -1.26800259817270
  H           7.61257633356920     -1.42718717873843      0.04767681324287
  H           6.04023627606850     -0.69516565712200      0.37866312242333
