24
Coordinates from ORCA-job NEB E -36.604748822860
  C          -0.10230792299680     -0.61990088464771     -0.04213888082300
  C           0.01702766207878      0.57213831884645     -0.93438420168111
  O           1.10569296316334     -1.35495405444085     -0.17587949792336
  H          -0.93653978678508     -1.25002478088753     -0.38359625711179
  O           0.53908873534258      0.27391587279484     -2.13564009836230
  C          -0.45547086961624     -0.17387937141473      1.40939527843825
  C          -1.24646351443720      1.06896318831770      1.22768860529953
  C          -0.49268637060472      2.20063145554291      0.66960498416207
  O           0.02660077754873      1.86531681309247     -0.62963894526648
  N          -1.15126986621428     -1.26014805177797      2.09197326715414
  H           0.50647757179277     -0.03234800561848      1.93333742872260
  H          -2.04447644701668      1.28228424398548      1.91892366911503
  H           0.39627210311144      2.49030726303487      1.25152938263102
  H          -1.10929379959642      3.08868182809367      0.51112630089205
  C           0.97531515589102     -2.71838577542872      0.15469338526026
  H           0.58039007911519     -2.84043714260847      1.16711394570891
  H           1.97519847295614     -3.14319393536906      0.08854432853037
  H           0.31279463890953     -3.23107152543254     -0.55309561940950
  C           1.01983348309935      1.34181451405504     -2.92709009279684
  H           1.87387189170350      1.82602504330192     -2.44817624639106
  H           0.23737423554081      2.08721796160315     -3.09244478366422
  H           1.32361420972163      0.89586758368830     -3.87150949688980
  H          -2.08399265156703     -1.35410711928151      1.69944155819440
  H          -1.26705075114037     -1.01471343944921      3.07022198621082
