24
Coordinates from ORCA-job NEB_product E -36.689100762670
  C           1.15309987173925      0.22091152651750      1.15192656758149
  C           1.72872954094562      1.38793020839424      0.35169069804101
  O           2.18335464216785     -0.72065607222870      1.29848865080738
  H           0.30630487082719     -0.20904661981016      0.59284487972123
  O           0.90942597737482      1.70073044103487     -0.65771170516483
  C           0.63987529447826      0.80175575108186      2.49704840537521
  C          -0.03646095241483      2.12394926458983      2.24299475299521
  C           0.37861247547809      3.28004461797991      2.72484074973163
  O           2.75154762362552      1.95867620722304      0.60013765763116
  N          -0.24615750292320     -0.15685254100553      3.15014208680811
  H           1.51488094509530      0.94429910972358      3.13915298715723
  H          -0.93615167036218      2.06479576779042      1.64089233247780
  H           1.27357087540370      3.35291131846170      3.31963868509058
  H          -0.14666810834911      4.20090821848114      2.53359349748396
  C           1.75576358775058     -1.98565028498099      1.75406006347889
  H           1.29158549714948     -1.91931793816895      2.74062349229729
  H           2.65153317315089     -2.60144078986853      1.80017832680264
  H           1.04057847791120     -2.43120792845058      1.05150593079726
  C           1.27069303529609      2.80247256716100     -1.48571669894813
  H           2.22315099287282      3.21664603915408     -1.15146181687186
  H           0.48579885351685      3.55542076498801     -1.41421725032262
  H           1.35266352433720      2.44504262515087     -2.51173945153823
  H          -1.09057844985833     -0.28025763326718      2.59874693056467
  H          -0.52195257521306      0.19913538004857      4.05944022800291
