18
Coordinates from ORCA-job NEB E -29.272477957110
  C          -0.56352446247280      1.19598609188559      1.01622675871654
  C          -1.80648463709743      1.22636312425476      0.37993744474927
  I           0.90019899676367      2.54767841733472      0.27489872949492
  H          -0.50996342953754      1.12926384268476      2.09368483309393
  H          -2.65756284939077      0.83260528235838      0.95806394816745
  C          -0.02050273316704     -0.63474964675811      0.44091743557234
  C          -0.08063965666117     -0.49133323329796     -0.95924168488906
  C          -1.31387441309882     -0.30369510063916     -1.56720167742335
  O          -1.88953874119198      1.29044620811774     -0.87742200414480
  O           1.10216728370517     -0.92436829105845      1.14515573101701
  H          -0.86066855021115     -1.12864667187254      0.92517404405651
  H           0.80187327616836     -0.14630072497260     -1.47776022651657
  H          -2.16965962283335     -0.85744252735691     -1.20732485407055
  H          -1.34097185489572     -0.06554585185703     -2.61862577570248
  C           2.35328466081817     -0.90998303517144      0.48025518119955
  H           3.08128305510508     -1.19623033486947      1.23683179152660
  H           2.61053270576458      0.07604840749922      0.09097989894388
  H           2.36405097223273     -1.64009595628150     -0.33454957379119
