18
Coordinates from ORCA-job NEB_product E -29.313172983210
  C           2.60184244410377     -1.67045243163890      0.63790203127722
  C           1.16755910991336     -1.45447744747446      0.26402876329333
  I           3.63118612842772      0.21503985028045      0.42574235987042
  H           2.66963485684668     -1.88137312059076      1.70785171703274
  H           0.71716010809177     -0.57569194639852      0.76446346341674
  C           3.31795480041083     -2.77192961133168     -0.13726827999172
  C           3.31681304271575     -2.51997575557603     -1.62001775305638
  C           2.67797316149593     -3.27028703431113     -2.49571526865060
  O           0.54086508416753     -2.14313733439915     -0.48662159284571
  O           4.62527980713690     -2.81436331894499      0.40258285781539
  H           2.79052823017603     -3.72083247077933      0.07050478640640
  H           3.90372182739954     -1.66608199257139     -1.93206185121723
  H           2.09302370586846     -4.12328166503026     -2.19402690637642
  H           2.69583996990520     -3.04788930868546     -3.54859196439021
  C           5.41461795115512     -3.87219638764083     -0.07935427797739
  H           6.37573682262906     -3.78445346337027      0.42255737744470
  H           5.55789563403253     -3.80823979897768     -1.16303661497098
  H           4.96036731552382     -4.84107676255963      0.16106115291969
