26
Coordinates from ORCA-job NEB E -35.639899669580
  C          -0.03335307097592      1.12951172999933     -0.50201568549124
  C          -0.80952943211956      1.94040206755597      0.29097492041844
  C          -0.62494818034407      0.59231945221625     -1.78230713890096
  H           1.02536809589699      1.34888845889045     -0.53002842664075
  F          -0.09470507362740      2.68832170114248      1.21816731108060
  C          -0.12488301150340     -0.54038218615053      0.89158463338525
  C          -1.11435850707624     -0.19369847441652      1.79117381941398
  C          -2.37101519555193      0.22843965374457      1.33199103775386
  O          -2.02345025522761      1.78453067865516      0.56218308837761
  C           1.27752701355337     -0.74546317411834      1.40188591217408
  H          -0.40773220159084     -1.12941678597072      0.03217099638558
  H          -0.80161066065450      0.16271923233495      2.76546485778450
  H          -3.10763557316407      0.55190352809077      2.05196221144035
  H          -2.78875144673441     -0.25659183223869      0.45951749535614
  C           0.27997887904750     -0.37492378646479     -2.53524595595678
  H          -0.81316931300817      1.45339942479004     -2.43267603252657
  H          -1.59452659503512      0.13230530199206     -1.58447599903586
  H           1.24756351045284      0.08222360854065     -2.72983355380923
  H          -0.17144182637731     -0.63235371873749     -3.49067518316015
  H           0.43983416780657     -1.29508196534568     -1.98010999782413
  C           2.24536548563892     -1.31452117623833      0.37288767781852
  H           1.22572824446242     -1.43351760754116      2.25186733229238
  H           1.66131193601401      0.20204121198293      1.78753651834903
  H           1.88006860473773     -2.26365685720824     -0.01410473663019
  H           3.21638781234490     -1.48769580162149      0.83114944366468
  H           2.38197659303529     -0.62970268388364     -0.45904454571912
