26
Coordinates from ORCA-job NEB_product E -35.700552900070
  C           2.95578226980955     -1.16477459871997      0.90164491244399
  C           3.01527102070597      0.15654654254077      1.59715849901021
  C           1.84406206484070     -1.10600199995619     -0.16112767041411
  H           3.91567280002208     -1.34277695773524      0.40911218260819
  F           4.29825125212493      0.64428918702823      1.63753915219350
  C           2.71966060024531     -2.29057282963850      1.94247150518327
  C           1.34038456299965     -2.20854685975027      2.52703862859916
  C           0.48548564408611     -3.21375090662111      2.54222251102205
  O           2.15623934114399      0.80575679785209      2.07987435759444
  C           3.75283007942593     -2.24691849441700      3.08235992248837
  H           2.83281742745326     -3.24631537475223      1.42167585024662
  H           1.07998352172807     -1.25969252616799      2.97526930191871
  H          -0.48824193345610     -3.12757880209336      2.99278261984978
  H           0.72410880647578     -4.17211672423330      2.10863023530825
  C           1.78925380840664     -2.36018996911331     -1.02326563209653
  H           2.02797052709984     -0.24097271120651     -0.80326687038587
  H           0.88448841831714     -0.95562383672039      0.33527808979926
  H           2.76302728883708     -2.57084824805028     -1.46031389067130
  H           1.07573006593003     -2.21952864497974     -1.83112147003298
  H           1.47288131796579     -3.22033063812381     -0.44064661373921
  C           5.18525072167551     -2.48217490916836      2.61600970577662
  H           3.48148204670710     -3.02455447031749      3.80080042814668
  H           3.68840485636679     -1.28793583478807      3.60180468107205
  H           5.25079145725937     -3.39438761830335      2.02613891124877
  H           5.84130000595466     -2.58524988798919      3.47691149086474
  H           5.55141202787481     -1.65184968457542      2.01841916196534
