26
Coordinates from ORCA-job NEB_reactant E -35.671884730330
  C           1.74739893955097      0.08565901566709      0.24326843774817
  C           1.25094600397501      0.56450348473978      1.37447328434938
  C           2.13552520784510     -1.30519472833797     -0.15554481284475
  H           1.90474296197198      0.83359602811254     -0.52158945965409
  F           1.02543480421089      1.90167203679495      1.43129324919456
  C           2.53160261908866     -3.13215692286899      2.95927208328899
  C           2.16231774240638     -1.88063848579054      3.17501018806801
  C           0.81719264903790     -1.31506821431056      2.81905516531812
  O           0.85632566649387      0.07433876499421      2.56309925802469
  C           3.86916800461428     -3.69685007964493      3.31207581173603
  H           1.84978469200355     -3.82140387313292      2.47500335193471
  H           2.82940166322148     -1.17995773511711      3.65809129968808
  H           0.15093824273644     -1.39680944332003      3.68743487010249
  H           0.36092366241752     -1.85470358441803      1.98111142542300
  C           3.43931181448239     -1.28633843360446     -0.95197058589448
  H           1.34625899153796     -1.73217992183370     -0.78417594614599
  H           2.26436007140294     -1.94784964305045      0.71252420087270
  H           3.33463550596479     -0.67805781450291     -1.84733907669358
  H           3.71372227839752     -2.29547812247035     -1.25083732632175
  H           4.24404379543595     -0.87225895154072     -0.34871794581070
  C           4.61565482165416     -4.14736000804914      2.05571305824422
  H           3.73208241996185     -4.55712510321112      3.97288848512985
  H           4.45971804407712     -2.94893733222612      3.84333527966159
  H           4.04027480193160     -4.89820485766090      1.51841969846286
  H           5.57932557425633     -4.57530833378272      2.32018249378761
  H           4.78190902132337     -3.30168774143491      1.39242351233026
