22
Coordinates from ORCA-job NEB E -47.635696322370
  C           0.55018121096164     -0.19023172940019     -1.34326731817697
  C           1.29645717554294      0.28071826528156     -0.17619206110093
  C           0.30611508867661      0.63677509943901     -2.36879095250441
  H           0.22740300054826     -1.21916898489011     -1.39671674202542
  C           2.73056181529546     -0.06823818924609     -0.04761115769246
  C          -1.02291340860376     -1.16907360466594      1.21526787920143
  C          -1.38475536978403      0.11934365545655      1.22259961152942
  C          -0.56280422812412      1.27869546806626      0.89493994426413
  O           0.80529567032903      1.03764622311112      0.73558794111979
  N          -1.93423016954068     -2.19435257576894      1.58284258735906
  H          -0.03850569881175     -1.54892664780649      0.98986696627969
  H          -2.40655130721899      0.35400801357546      1.49395264220813
  H          -0.65297093623874      2.07009831504275      1.64039890090124
  H          -1.08201866082466      1.73550480179244     -0.10954112218135
  Cl         -0.54007817868243      0.15149484551244     -3.75666299221040
  Cl         -2.01262993540021      2.22336892485167     -1.48971223659062
  Cl          1.00391346744045      2.19998297294238     -2.43441629058889
  H           2.86552704244123     -1.14569221533507     -0.13453075142911
  H           3.13054399355306      0.28438968528977      0.89894995456001
  H           3.28636916398640      0.38591821832787     -0.86912389366141
  O          -1.49621141401700     -3.33072348346414      1.56446467150565
  O          -3.06869832152871     -1.89153705811232      1.88769441923343
