22
Coordinates from ORCA-job NEB_reactant E -47.699448192060
  C           1.37433806477742     -0.48537160407949      0.11450470167350
  C           2.05296474675463     -1.45992415655750      0.73903054596814
  C           1.93819978875563      0.40391490158831     -0.92375110019503
  H           0.34490102519063     -0.27818175482173      0.35427714554653
  C           3.47980782907887     -1.82275612810508      0.48297700727021
  C          -1.10140494121664     -3.10054476360350      3.98097924875471
  C          -0.14188589399504     -3.17349810173441      3.06756819019335
  C           0.17381221944401     -2.11248762325596      2.07096864549677
  O           1.52411062456295     -2.26175889437168      1.68738367552686
  N          -1.34860617750841     -4.19063931700419      4.88303966176917
  H          -1.76111141173901     -2.25996577496397      4.13326913674161
  H           0.46960467293280     -4.06637799996753      3.01398254294435
  H          -0.00562236045590     -1.11295924194889      2.48849800397196
  H          -0.48264310685681     -2.24445228459520      1.19569425141459
  Cl          2.63922571893839     -0.49590788109858     -2.30001425317001
  Cl          0.66818296786833      1.46325077694662     -1.57421796346841
  Cl          3.23250752773977      1.47105133316072     -0.26884937187856
  H           3.83856273428349     -2.43325546254040      1.30687319711581
  H           4.09651877249780     -0.93500747461699      0.38601767559825
  H           3.55909145395741     -2.39770508536593     -0.43732514617121
  O          -0.67592936211073     -5.19070798789164      4.77413707283933
  O          -2.22702489289959     -4.02301547517298      5.69955713205809
