22
Coordinates from ORCA-job NEB_product E -47.699839148120
  C           1.32932036940107     -1.30343880055866      1.52644744220418
  C           2.61287990295418     -1.47234969513553      2.41097556016187
  C           1.43901363746983     -1.41785052537305      0.01085137381009
  H           0.99897382683653     -0.27555317492925      1.72543502542663
  C           3.91734379440915     -1.86440837422028      1.80246718634993
  C           0.26363191244332     -2.22747437466304      2.16366387039044
  C          -1.11523388342761     -2.17731661725413      1.58327798719828
  C          -2.06815501678694     -1.40139563718062      2.06511732345728
  O           2.48450415560112     -1.19098478545152      3.57282872289481
  N           0.76322847244461     -3.63520093077700      2.18895675970575
  H           0.22962498364675     -1.92971187688537      3.22233419375492
  H          -1.30293576323328     -2.84647480424141      0.75685157777651
  H          -1.90044182591314     -0.74186109862853      2.90092056535491
  H          -3.05179019718105     -1.38510120148554      1.63169418933425
  Cl          1.67570179205367     -3.08472434612889     -0.56187471580694
  Cl         -0.05723047862299     -0.78470843450040     -0.75961158995055
  Cl          2.75586555402836     -0.38991091473840     -0.60758293268881
  H           4.52101559735576     -2.32941169876271      2.57796404071661
  H           4.43239222012142     -0.96706041051377      1.46347449130465
  H           3.80036899207794     -2.54828015534889      0.97078797138026
  O          -0.04272364352584     -4.51454684142307      2.05028112162582
  O           1.94194559784715     -3.78733530179991      2.40153983559914
