85
Coordinates from ORCA-job A2R E -108.672995587530
  Ru          0.06018271628473      2.27062222538072     -0.05214067114227
  H          -0.33825011831924      0.82431829294373     -0.47395961806985
  N           1.21115488847857      1.47336179013332      1.48897719302629
  C           2.52903436660848      1.25426162897442      1.31796612228647
  C           0.70747791087148      1.34636136324740      2.73200536681062
  C           3.38783018576629      1.05662803390082      2.38962929898508
  C           1.51717107633178      1.16125423295574      3.84190278881629
  C           2.88867264386591      1.05216201235905      3.68062752215915
  H           4.43931453824953      0.90098106983747      2.20512863638151
  H           1.06968569807976      1.09493706369656      4.82219996883239
  H           3.54077313871273      0.92918912778549      4.53094013415687
  P           2.04862157782896      2.21655123320320     -1.20266093833890
  C           2.25588406372307      1.34492405710425     -2.88223729043216
  C           3.11566033387939      3.80295482429949     -1.20593354239872
  P          -1.55918002788507      2.29608949840156      1.52193709478009
  C          -2.02205339241202      3.82347165042476      2.50221311519113
  C          -3.26134053010261      1.53649613308993      1.29613727661949
  C           3.03784659758898      1.13222265120280     -0.08325045837490
  H           2.85165426190841      0.09680646941700     -0.39637949014994
  H           4.11335031410416      1.31321488431171     -0.14432984542724
  C          -0.78551064829022      1.29560222163245      2.87552428859044
  H          -1.08128532929223      0.25236806466021      2.71757293473476
  H          -1.11637515105354      1.59829037198739      3.87311968936958
  C          -0.90320650503570      3.03624148954503     -1.41854983916377
  O          -1.48390304221944      3.52910423920495     -2.29160951118832
  H           0.46272034047559      3.66312466586181      0.46984182688317
  C           1.86153458126400      2.32548641807080     -3.98741632462163
  C           3.63260540380853      0.73572232920640     -3.14870574040711
  C           1.23672752658020      0.20454440399979     -2.89330969818984
  H           2.63956163261777      3.05990965137640     -4.17918829083713
  H           1.67989147700783      1.78428806439611     -4.91590124061873
  H           0.94178435788787      2.84293738388668     -3.70991578337322
  H           3.86879862697616     -0.03683996881066     -2.42059650935251
  H           3.61766241927007      0.26580946481477     -4.13252149011469
  H           4.42802221056445      1.47127333462940     -3.14844998661368
  H           1.41710028774746     -0.49360039500895     -2.07903435616185
  H           0.22589003779040      0.59462643699274     -2.79189498646290
  H           1.30465775384105     -0.34929216815501     -3.82950542713218
  C           3.41021603789367      4.13995476586885      0.26001456441999
  C           4.45428872851673      3.72285222634132     -1.93775436243507
  C           2.26783748796513      4.92666755963250     -1.80392863286435
  H           4.16980636381583      3.48525243248753      0.68257553300776
  H           3.77371711917325      5.16422513726007      0.33540994048357
  H           2.50636573637047      4.06317499128063      0.86169763554040
  H           4.32798974116237      3.62936626380350     -3.01229775396371
  H           5.00568242489906      4.64546586836650     -1.75312930677985
  H           5.06353361077658      2.89797661838884     -1.57342864144891
  H           2.12898870281147      4.80049229701794     -2.87385837204781
  H           1.28649327075332      4.94265317641083     -1.33092431103742
  H           2.74753815172695      5.89074236194208     -1.63637732341297
  C          -3.72346874615541      1.90331340245310     -0.11324339914592
  C          -3.26428863389791      0.01873817389352      1.44229419397227
  H          -3.93931281781873      1.97950530576816      2.03698919056121
  H          -3.07310065692751      1.41799603553056     -0.84136738703454
  H          -4.74864948569605      1.57524596402596     -0.28197792352622
  H          -3.66866278686562      2.97637244011687     -0.28590473323802
  H          -3.15547486936062     -0.29422024561014      2.47912219817452
  H          -4.20611776379554     -0.38289960708997      1.07049692042931
  H          -2.45830347783045     -0.40732066240549      0.84589196190435
  C          -0.78664435845985      4.46070104030899      3.12732055894869
  C          -2.72375560955391      4.82759021961302      1.59376827235512
  H          -2.70450739710241      3.49780951341356      3.30104136844843
  H          -0.08934949931905      4.75351967652407      2.34475244675187
  H          -1.06788758963288      5.35199818871099      3.68689125786815
  H          -0.27429436528841      3.78041773783214      3.80592126596969
  H          -3.72100648443103      4.48933807605663      1.32076816587049
  H          -2.81865907853945      5.79119004065562      2.09277858912194
  H          -2.13597963118046      4.96558068808695      0.68468895326435
  C           1.47606312131558     -2.31136811245444     -0.00678061006185
  O           2.67597060802070     -2.11963515590342      0.02603000135573
  C           0.82692332849137     -2.92144999045422     -1.19227082379681
  C          -0.52439463273638     -2.74542855151246     -1.48543164895301
  C          -1.06404440944320     -3.31196444267393     -2.62468781230663
  C          -0.27166833455114     -4.06735528085566     -3.47448829090080
  C           1.07331589910670     -4.24468059832974     -3.19259415268478
  C           1.62041016118483     -3.66822131057333     -2.06346873513829
  C           0.58000173431109     -1.89914024466184      1.12630633632028
  H          -1.14913596617085     -2.14017636904858     -0.84813113977918
  H          -2.10878571693025     -3.16221642074505     -2.85346224055567
  H          -0.70186272856923     -4.51222635851424     -4.35977792024904
  H           1.69436538276361     -4.82816970614552     -3.85616924537310
  H           2.66852182904708     -3.78706157172350     -1.83076204953033
  H           1.17275348274884     -1.72592164011078      2.02229152781956
  H          -0.19290903017374     -2.63804289174729      1.31883452349531
  H           0.10931492407183     -0.95594529219083      0.83339919112953
