85
Coordinates from ORCA-job A3S E -108.639919948700
  Ru          1.05035821507651      3.62582775228851     -0.26769260386965
  H          -0.39706307615113      2.21994256843581     -0.18390664498627
  N           1.61198897876167      2.53456480568174      1.44431157000259
  C           2.40560985572969      1.42356197114595      1.25900124764579
  C           1.21433078572335      2.85779931064920      2.68254391038673
  C           2.84701100981187      0.69121302812495      2.39987474086400
  C           1.65916784321416      2.19869352713954      3.80907400575580
  C           2.51060607292433      1.09646086420864      3.65492226016505
  H           3.47503764860685     -0.17165179776079      2.23658780150622
  H           1.32674535609290      2.51035502381538      4.78614680144144
  H           2.87253927134874      0.56827551184876      4.52505272723833
  P           2.62779207485547      2.23702034871878     -1.28584938984994
  C           2.29201250001311      1.39193256513593     -2.95348365430083
  C           4.41095014106637      2.95835295839531     -1.33366006900096
  P           0.06964751912582      4.96470189499203      1.32542839778451
  C           1.03511221433928      6.46866983575832      1.86469212592797
  C          -1.64677611924469      5.73297000708451      1.32858697606714
  C           2.69897875207405      0.98754162839663     -0.03666321976435
  H           0.78535717842501      0.32895390692196     -0.09436758567338
  H           3.37173355289965      0.14584281595781     -0.15240387953422
  C           0.15072494521699      3.91576902866538      2.83761144423451
  H          -0.80812563390297      3.39453044727015      2.93465580903706
  H           0.29988759215131      4.51065789879473      3.74297760846510
  C           0.46244694499868      4.48859775155328     -1.77963553444537
  O           0.07419387648965      5.03625609812651     -2.72251600612696
  H           2.17543774666950      4.61059268220778     -0.16790383809450
  C           2.93160381189405      0.01041278641813     -3.06475494140208
  C           0.77348657081687      1.22455489587518     -3.04597200584342
  C           2.71596788178190      2.29908570541736     -4.10719862910065
  H           2.57536002029297     -0.63801140838421     -2.26719811138460
  H           2.64851648902611     -0.44038923592625     -4.01594863680444
  H           4.01494160004793      0.05341361040198     -3.02272976787618
  H           0.27414529746646      2.18325385225000     -2.88015909614678
  H           0.49810983043731      0.86839642708539     -4.03877472462516
  H           0.42009045544564      0.49639084882331     -2.32128459702534
  H           2.33717872623694      3.30793734733342     -3.94511258448087
  H           3.79441322622373      2.33646260279577     -4.22631977789863
  H           2.29595206768376      1.92391519150464     -5.04068836726684
  C           4.77493161445590      3.23115751995096      0.12948845140797
  C           5.45167551501876      1.98648684809561     -1.88658368590167
  C           4.44337157831800      4.28300811542576     -2.09626224989474
  H           4.91709466479470      2.30329746864300      0.67944819121231
  H           5.69959115360759      3.80413159925717      0.18464293095270
  H           3.98719713555478      3.80335991502641      0.61983783220572
  H           5.35655292992345      1.84310223421645     -2.95896187259803
  H           6.44858562499400      2.38427665323722     -1.69504447528915
  H           5.37721652578290      1.02058453112015     -1.39020365930559
  H           4.42271900192886      4.13652210488050     -3.17074460563698
  H           3.58623136806887      4.89566209977537     -1.81296200497430
  H           5.35421753495453      4.82872259444046     -1.85141975882102
  C          -2.42871538472527      5.20409074248260      0.13088148283356
  C          -2.42257648793235      5.55745946086765      2.62937734088671
  H          -1.47877190426669      6.80576914971538      1.17506948202397
  H          -2.55757423517231      4.12685728003535      0.20965547553016
  H          -3.41292872516693      5.66734968871700      0.07609849701384
  H          -1.89270520089616      5.41781602263057     -0.79354224016601
  H          -1.83743308023315      5.88976058010514      3.48476106675992
  H          -3.33246229077547      6.15542207202786      2.59095873804836
  H          -2.71032760914351      4.52021388634867      2.78347753749805
  C           2.40091228294241      6.09753117830825      2.42944099242684
  C           1.19982012706005      7.40413472009488      0.66977216407239
  H           0.43881793833351      6.96266438835438      2.64644166782742
  H           2.97356826169324      5.55569362017879      1.67802858966547
  H           2.95135520312347      6.99913724617365      2.69347708018470
  H           2.32294519295006      5.47412253524598      3.31722738226774
  H           0.23872617883613      7.71718748829318      0.26596804981007
  H           1.75700963427826      8.29434376094385      0.95581384949516
  H           1.74413314637267      6.88650105063838     -0.12096593748870
  C          -0.97211432229787      1.23527843708502     -0.00588452262166
  O          -0.15650884252542      0.13654299635472     -0.31196648252819
  C          -1.43235442958325      1.17711185093781      1.44350930661377
  C          -2.60072640967859      1.79992735398869      1.87250927972289
  C          -3.00564760988238      1.71480004639033      3.19316727723112
  C          -2.25278223126613      1.00253863976601      4.11162816484516
  C          -1.10374421197346      0.35877326472454      3.69076468288364
  C          -0.70214045363765      0.44063761892514      2.36939314898705
  C          -2.15830160306096      1.20881081350627     -0.97417691585318
  H          -3.21734481600019      2.34946391230629      1.17830545846549
  H          -3.91870463079465      2.20286285806797      3.50429697940791
  H          -2.56900777331531      0.94046839760137      5.14229611385501
  H          -0.51359647653391     -0.21430295885548      4.39013496676130
  H           0.18426196423099     -0.08978964671517      2.05684555957042
  H          -2.80829601820033      0.37509434180601     -0.71780586513924
  H          -1.79410512231245      1.06238413062410     -1.98674465893049
  H          -2.72558593151865      2.13395633110418     -0.94579256633869
