85
Coordinates from ORCA-job TSA2R_3R E -108.632685619940
  Ru         -0.41009295418736      0.51822931468886      0.00818014656191
  H          -0.08290253612479     -1.24461118860566     -0.19883859274708
  N           0.89459429190737      0.22447606352132      1.65668114778742
  C           2.22103825503324      0.12543607087817      1.38813020632402
  C           0.47217178691244      0.13866201783863      2.91980444915665
  C           3.15012988625074      0.01818657630521      2.43821806190290
  C           1.35046312622864      0.06571406917887      3.99131645610660
  C           2.71753090555962      0.02144923722873      3.74126047555572
  H           4.19896095887658     -0.06511985011994      2.19951595570447
  H           0.96759221222091      0.01524791845583      4.99837541980010
  H           3.42023091475781     -0.03903036622749      4.55874414706800
  P           1.59087960435609      0.98122530397569     -1.09760200270309
  C           1.98493477240890      0.35439780550228     -2.84368331424910
  C           2.24904948957607      2.77483955386035     -0.92593220355618
  P          -1.99798699455648      0.39139554124715      1.68148920870758
  C          -2.74580867315083      2.02242789285718      2.21682820540657
  C          -3.57245078338803     -0.64643147223926      1.83937364100632
  C           2.62435105331582     -0.00760815137638      0.00665503553145
  H           2.22340343307018     -1.28109368980389     -0.23105289797049
  H           3.69901108828583      0.04291144847038     -0.15866193202483
  C          -0.99964056179733     -0.03471474523693      3.17946120204437
  H          -1.15277880900560     -1.09643273991207      3.39872553466050
  H          -1.32618395535858      0.53273756733861      4.05542449881777
  C          -1.53597661016021      0.80942286716859     -1.41497346496908
  O          -2.25366226289767      1.06555122370735     -2.28547662623533
  H          -0.48053553450921      2.00048427941022      0.29725699743384
  C           3.44237761283729     -0.06974597888549     -3.01180075362809
  C           1.10347753358747     -0.87602894444902     -3.06417392876122
  C           1.57898770242801      1.39433627328717     -3.88832046689109
  H           3.66433895454932     -0.91504916536013     -2.36510459861747
  H           3.60103140722454     -0.38708427916623     -4.04215550273585
  H           4.13980382178957      0.73388933055174     -2.79816953986110
  H           0.04932847189266     -0.61917226216996     -2.95352055737025
  H           1.25097771630325     -1.26197196020344     -4.07213676012266
  H           1.36002004641918     -1.67004538155924     -2.36699519811350
  H           0.57651965037827      1.76529551786195     -3.67514334929964
  H           2.26987162055365      2.23138708081292     -3.93193407433183
  H           1.56393050569698      0.92966226613755     -4.87405415504094
  C           2.31333058305774      3.07936350409780      0.57394444089586
  C           3.65012792175323      2.98874744040959     -1.49530894871117
  C           1.24916017618751      3.73869453635974     -1.56771393422369
  H           3.10581096433092      2.51459025189076      1.06096142176698
  H           2.51510518951222      4.13932113129922      0.72586546645087
  H           1.36612441162555      2.84452779567002      1.05846243262395
  H           3.67326986224682      2.90820148609933     -2.57776707994902
  H           3.98994859048161      3.99108707793689     -1.23314544056338
  H           4.35586129067064      2.27718297885027     -1.07020921496287
  H           1.32701362874380      3.74631411936162     -2.64955888823293
  H           0.23191086660496      3.45397374971048     -1.29472674614999
  H           1.42860906874972      4.75312865663255     -1.21312383753184
  C          -3.78435928349784     -1.44345819750146      0.55642609390023
  C          -3.64989761823202     -1.55273514329222      3.06301688639360
  H          -4.38530707307339      0.08580566584974      1.91674615842901
  H          -3.02791131635761     -2.21835856059337      0.44561270877675
  H          -4.76216998179170     -1.92295882757266      0.56176135754447
  H          -3.73032600531272     -0.78204472241952     -0.30826610418190
  H          -3.50480925863855     -0.99289206132465      3.98497477795005
  H          -4.63698178074510     -2.01207029913417      3.10181235069089
  H          -2.91816723506877     -2.35716714045712      3.01398276993783
  C          -1.71329362147835      3.03360348356830      2.69926835006367
  C          -3.52561415477743      2.59742103763791      1.03769862488390
  H          -3.43312484305465      1.79252607926769      3.04480261721288
  H          -1.00569065074526      3.25086935605271      1.90116381018007
  H          -2.21080541006230      3.96206933079493      2.97478090147755
  H          -1.15817662532387      2.67748800074632      3.56436796478327
  H          -4.28797016358119      1.90533187093393      0.68327621925273
  H          -4.01219640956628      3.53026668041281      1.31687027387078
  H          -2.83849289234192      2.79330307937239      0.21395312761768
  C           0.34425595917330     -2.37342428119314     -0.14274324876040
  O           1.65500520366089     -2.41952427613011     -0.44238859224375
  C          -0.47876584446243     -3.17801159997480     -1.13337762060241
  C          -1.57311250485716     -2.65939899222625     -1.80591417846289
  C          -2.29340842795013     -3.44063898835628     -2.69221681892122
  C          -1.91775465753012     -4.75196168286265     -2.92348670446690
  C          -0.81231384728304     -5.27270076996803     -2.27145610679875
  C          -0.09758707417156     -4.49150197850388     -1.38344328868027
  C           0.03690576263291     -2.88539735423300      1.28059510130253
  H          -1.85904667350840     -1.62658364220248     -1.64288279974873
  H          -3.14501921772561     -3.01951981927407     -3.20674299578297
  H          -2.47746116368389     -5.36310780311068     -3.61668332988643
  H          -0.50490189033506     -6.29184133248881     -2.45730403640988
  H           0.77780163576298     -4.88435018653721     -0.88801908875060
  H           0.66232952035248     -2.37576723369587      2.01179969993108
  H           0.27035923572223     -3.94772964698406      1.32392474265756
  H          -1.01525139339749     -2.74389781788821      1.52469983508040
