25
Coordinates from ORCA-job NEB E -47.069459642610
  C           0.58351340529862     -0.61758895824320      0.43670211079904
  C           0.11174236312528     -1.67642580074252     -0.45897992791275
  O           1.96081487538532     -0.43954909370029      0.32742839590214
  H           0.26833938208546     -0.76221915958012      1.47594489636495
  C          -0.91040482985064     -2.58066723141426     -0.08394539357685
  C          -0.17120950906346      0.78771255103800     -0.06006680588734
  C          -0.52118891749366      0.69677939313562     -1.46276558379994
  C           0.44289370107862     -0.08102201698052     -2.23415339551046
  O           0.22694757557900     -1.46070534898689     -1.75821940849610
  O          -1.19830827575835      1.02717864283629      0.84702858563879
  H           0.65722875180472      1.50624592212567      0.08574799758911
  H          -1.56470098459536      0.63617750716180     -1.73206934444075
  H           1.48498914154388      0.18285098463263     -2.03196463666438
  H           0.24547778877254     -0.13976415710513     -3.30198282688668
  C           2.57204970524430      0.16432944576821      1.44533339402899
  H           2.20644883428158      1.18450293086177      1.60774416822788
  H           3.63623499792539      0.19307892171087      1.22255754477023
  H           2.39886303424046     -0.42423766995440      2.35164008137756
  Br         -0.91144682691712     -3.21336665321591      1.69513541697037
  Br         -2.95613664177041     -1.34882420596047     -0.23858374557620
  Br         -1.22077785447958     -3.96739005837995     -1.33802321546965
  C          -1.72633136972421      2.33303592388159      0.79981090899877
  H          -0.95076248580410      3.07674207071164      1.02133663044468
  H          -2.50044048989749      2.36929120624486      1.56233309742848
  H          -2.16383537101080      2.55383485415471     -0.17798894431990
