25
Coordinates from ORCA-job NEB_reactant E -47.116911574860
  C           1.05631739059376      0.30866558532136      0.04316761859331
  C           0.89705166619358      0.31725507331391     -1.28786851801911
  O           0.07650548788120      0.65066639205531      0.90967632731417
  H           2.01378740879298      0.03103847697150      0.46988725033209
  C           2.03789519135862     -0.04026705712468     -2.18058202735311
  C           0.11075475349511      3.66587459962419     -3.02702659410418
  C           0.02453151827797      3.05852425698117     -1.84621747247536
  C          -0.87734540935690      1.88154821144629     -1.63882642946348
  O          -0.22659520369381      0.64825340953253     -1.98252537559918
  O           0.88668573914476      4.69957366517945     -3.39082514944525
  H          -0.50780923803693      3.35528340333713     -3.86006963697053
  H           0.64870126816692      3.34060541647027     -1.01207468667233
  H          -1.73051330927296      1.90956678555692     -2.31852687353060
  H          -1.22590938497376      1.82949475308035     -0.60361446034161
  C           0.41277783486268      0.54554497166316      2.27648621788737
  H          -0.47069060879335      0.85790163044803      2.82924210443524
  H           1.25309092637167      1.19973427862649      2.52828281182364
  H           0.66427062879135     -0.48538144884658      2.54151894682380
  Br          3.00123581876562     -1.62356622552083     -1.59106989182538
  Br          1.42841711506853     -0.32741777614047     -3.98228876181103
  Br          3.36242398501216      1.44207361962387     -2.23098841160796
  C           1.77874813926120      5.22669231566423     -2.43329540982279
  H           2.29979819637533      6.04377613040630     -2.92791803488718
  H           2.50429580484285      4.47368289073556     -2.11182476484799
  H           1.23917428087143      5.60937664159452     -1.56171877843254
