20
Coordinates from ORCA-job NEB E -54.490965723420
  C           1.07417497999216      0.46080307471748     -0.38204340586325
  C           0.41402789279471      1.66259202937950     -0.68418891343715
  C           1.12193012024873     -0.57710469089456     -1.48704743059881
  H           2.03750339767853      0.52492962253819      0.11574710421490
  Cl          0.91778238814892      3.07228323893334      0.22910796272915
  C          -0.19064607659692     -0.19969057538882      0.95696628638298
  C          -1.42375090134846     -0.14983502905872      0.30507280000379
  C          -1.88488277947146      1.12506875879297     -0.13995049901888
  O          -0.76279813744867      1.67096790593542     -1.17007120123982
  C           0.28767505060861     -1.53739953302209      1.47582833135207
  H           0.04461130146649      0.57987164748037      1.67842354322334
  H          -1.79723792461128     -1.03905212655764     -0.17976562945663
  H          -1.87572798391174      1.92769303881125      0.59449487877815
  H          -2.77833806461469      1.12188264641912     -0.75185890775300
  F           1.82685488871225     -0.09742893454668     -2.52638102707835
  F           1.74502555636638     -1.69226238692417     -1.10097121946846
  F          -0.06642865746746     -0.93734934820167     -1.97153213085744
  F          -0.04035093797774     -2.56735079409683      0.69760234071750
  F           1.61348780418318     -1.57078278131901      1.66046847411781
  F          -0.26291191675156     -1.77783576299747      2.68009864325210
