20
Coordinates from ORCA-job NEB_reactant E -54.523021896980
  C           1.64253245739307     -0.06399427056694     -0.14078705917835
  C           0.95327303727604      0.03408958644096      1.00217077673264
  C           2.20322709790537     -1.37539018274152     -0.58112806859714
  H           1.82518271557605      0.77913639832714     -0.77960257850140
  Cl          0.31550330709701      1.56422245828080      1.48245738722372
  C          -0.27154813224346     -2.49329913944436      4.86530747045129
  C          -0.13311093104772     -2.26032327550482      3.57106174240911
  C          -0.01437835173449     -0.89442973945418      2.97864405450147
  O           0.74302336442959     -1.01345224720385      1.78357475613102
  C          -0.43204836262905     -3.87024872206167      5.43103586438715
  H          -0.29427503312280     -1.71504293585662      5.61347252871691
  H          -0.10634172260286     -3.06900200488221      2.85364967110834
  H           0.47045545708396     -0.19811388909551      3.67270297833644
  H          -1.01830472371027     -0.51122793828257      2.74472927955041
  F           3.11995067801122     -1.87003573779366      0.27033409800512
  F           1.26685702825739     -2.33292694856078     -0.70709355805030
  F           2.80605742252543     -1.27273987427073     -1.77107243272213
  F          -0.40026506750427     -4.83568869229173      4.50755945851522
  F           0.52861033244841     -4.15498716729052      6.32567688259647
  F          -1.60120057340863     -4.00054567774721      6.08470674838400
