21
Coordinates from ORCA-job NEB E -47.928458133360
  C           0.16256334321015     -0.13046818413622      0.99965711383901
  C          -1.17634016912726      0.26711112029237      0.79467679792517
  C           1.15330925275916      0.89651136265352      1.45005840419791
  H           0.27893687959700     -1.05979015489779      1.55462237300850
  N          -2.17479958335097     -0.82916929397717      1.02265207642793
  C           0.55579577304912     -0.75994538520773     -0.90502743497092
  C           0.19962254365009      0.42445156806765     -1.60520480190874
  C          -1.10564595891008      0.83120861990086     -1.72628728945573
  O          -1.56160090907338      1.22087126985310      0.10874736385039
  N           1.82861261810800     -1.23186987211159     -0.98024227317802
  H          -0.18404054809575     -1.55343693747471     -0.86436836680075
  H           0.99654547621177      1.11675833270018     -1.83297611948715
  H          -1.91349735216751      0.11584248421802     -1.75740537744475
  H          -1.32234926263651      1.78587609556129     -2.17566412071846
  Cl          1.12495646719898      2.41572184232206      0.55362593388107
  Cl          0.77187754040195      1.28804090304201      3.18104830036243
  Cl          2.81835736966239      0.26223430122596      1.44614835263078
  O          -3.25117130183656     -0.69170964966760      0.49590284774925
  O          -1.82965072362477     -1.77300942324904      1.70386420693271
  H           2.56932969892500     -0.54841223527211     -1.02891560439689
  H           2.05918884604919     -2.04681676384305     -0.43491238244376
