21
Coordinates from ORCA-job NEB_reactant E -47.951872067830
  C           1.83299833270055     -0.44410544554711     -0.32793953852407
  C           1.22426136789101     -1.04484370594691     -1.35926649365690
  C           2.32868570639557      0.94964994035105     -0.27151957661341
  H           1.97667659271945     -1.03247261359030      0.56876936069429
  N           0.82381531437199     -2.46583787560764     -1.13722025909646
  C           2.49616727592320     -2.45420962399070     -4.53207623839998
  C           2.85199240066406     -1.41335486173121     -3.77015028451094
  C           1.93214712532861     -0.27180855435411     -3.52849853385025
  O           0.89017039679794     -0.63820122116756     -2.56660014103878
  N           3.28175146793038     -3.53357452443492     -4.81059463175146
  H           1.54202699854491     -2.44560224217683     -5.04020197429740
  H           3.78536874188495     -1.42011621375413     -3.22608871378707
  H           1.34655490143243     -0.01793824056870     -4.41221594115446
  H           2.46513484594164      0.60898297611216     -3.16776667421796
  Cl          1.30771448556987      2.08291029231094     -1.18547996890372
  Cl          2.39074685462510      1.50029506170249      1.41934704688135
  Cl          4.00361912032337      1.02707941409721     -0.92932017659282
  O           0.53649485853543     -3.09442982741356     -2.12363524868623
  O           0.83717307494338     -2.88647834520651     -0.00497359626931
  H           4.08764357449267     -3.67397335157022     -4.22211900715956
  H           2.82305656298346     -4.37357103751342     -5.11824940906484
