19
Coordinates from ORCA-job NEB E -33.798600831690
  C           0.27502844863699      0.10460016473979     -1.26481122888510
  C          -1.10593564123163      0.31048752228807     -1.12408121901123
  F           0.69114802125389     -1.11742592303457     -1.66776217521650
  H           0.88358407869819      0.87686024684013     -1.72960022503847
  N          -1.57147594155993      1.62478872922073     -1.07479534798919
  C           0.76102688059931      0.03445579496096      0.64153258383297
  C          -0.05362806982654     -1.00135953098553      1.09212937818035
  C          -1.46606591375783     -0.81508973657980      1.00124959114127
  O          -1.83539024590382     -0.60366177080362     -0.55903464988377
  C           2.26272768102273     -0.11641386521532      0.69207912634852
  H           0.45763023560140      1.05510517869828      0.86217020764576
  H           0.33655388622930     -2.00672447319341      1.05282882931185
  H          -1.84502901582219      0.11477321035651      1.42189606265286
  H          -2.07919641835860     -1.66962703934144      1.25975129648776
  H          -2.57279055464698      1.69005163718067     -0.96767296664123
  H          -1.19456331658277      2.26041222410000     -1.75894512774300
  F           2.66278119266760     -1.41619379699586      0.55065413228389
  H           2.63289162793659      0.21829668302660      1.67032534575540
  H           2.76070306504428      0.45666474473781     -0.09791361323213
