17
Coordinates from ORCA-job NEB E -33.718570312070
  C           0.49624398846122     -0.79234464031669     -0.96359705964861
  C          -0.61354827048032     -0.08819926530854     -1.44917890185495
  H           0.32402636099749     -1.77764290416524     -0.54994058814376
  H           1.42748924021743     -0.69310374119951     -1.50797393375175
  C          -0.42272064357717      0.98097200447012     -2.35799946983162
  C           0.71110517327191      0.11313453294714      0.68747618576484
  C          -0.54900432584085      0.02615188152294      1.28254120950943
  C          -1.66494899481321      0.61025801107266      0.56723738212597
  O          -1.74685674801901     -0.14600731266984     -0.75324172566125
  N           1.77780198784120     -0.62924539651775      1.35433529442371
  H           1.08073832047670      1.06720963211555      0.32161999630008
  H          -0.73361650609656     -0.81570287256766      1.93576346326862
  H          -1.53491251732531      1.65928932215589      0.29355995567492
  H          -2.63543004803088      0.44121240703857      1.02424374625296
  N          -0.27405568182221      1.85589615396808     -3.08683118071426
  O           2.84683184839447     -0.07749013348669      1.44338921688396
  O           1.51085681634511     -1.73438767905904      1.75859640940168
