24
Coordinates from ORCA-job NEB_product E -40.822780623670
  C           2.85871580709497     -0.44102986453775      0.95560978516541
  C           1.32221824583310     -0.36839259005956      1.10155758243066
  C           3.13509074977240     -0.43138070988462     -0.55205101553057
  H           3.22124865090351      0.53862320589163      1.29351764794602
  O           0.70168835978249     -1.37714743585485      1.69274005687576
  C           3.54861159819712     -1.51755307333014      1.82394514604587
  C           3.06445389722439     -2.92121950227035      1.56917906554179
  C           2.73285045658720     -3.76097775298673      2.53884947185574
  O           0.72508156471904      0.58257441010126      0.68293050596463
  C           5.09477973123107     -1.46062755806364      1.73226165309567
  H           3.29175782266230     -1.25149493702820      2.85880663089497
  H           3.04046051179497     -3.24627803046115      0.53979946918283
  H           2.76557381145662     -3.47555387203288      3.57889936744785
  H           2.43099154592655     -4.77356620015993      2.33391441127155
  F           4.40073787617845     -0.04171104872957     -0.83138580738156
  F           2.98289847827676     -1.64865606895809     -1.12574734921710
  H           2.45422601349188      0.26855308194614     -1.06182885520080
  H           1.29311129243060     -2.13067788236854      1.89945999286102
  C           5.72058298432823     -2.38266519626332      0.69070922675347
  H           5.49232856397056     -1.74156024681921      2.70984750671351
  H           5.40105612064513     -0.43195126929321      1.53606052912867
  H           5.53548997226663     -3.42545695536808      0.93800343984272
  H           6.79590896252127     -2.22271835859017      0.67417462996236
  H           5.34163698270474     -2.19003214487903     -0.30685309165048
