18
Coordinates from ORCA-job NEB_product E -43.203153331330
  C           1.60692837134677     -1.35025165899990      0.86240571684839
  C           2.37927422313469     -0.32365194068422      1.67627381503159
  C           2.40243652742352     -1.68662725644542     -0.40723442080573
  H           0.65981114287125     -0.91350106342905      0.52684301068278
  Cl          2.18462693105239      1.29623711232315      1.03425242791793
  C           1.31990691838326     -2.63021745953910      1.68163129890700
  C           0.40956981689302     -2.33083977981152      2.84873562719059
  C          -0.77011615867833     -2.89825592723983      3.00595796405872
  O           3.04171085074577     -0.53436011354163      2.63167406336572
  C           2.53572687495698     -3.24126390119194      2.19061550420808
  H           0.83691512686226     -3.36319354105137      1.02221162835829
  H           0.80090128890967     -1.62889963798298      3.57044381019690
  H          -1.39229466719534     -2.67333830692476      3.85419864759347
  H          -1.16320197160336     -3.61145692832981      2.29959626954988
  F           3.65571640043567     -2.06022813097542     -0.15982418681755
  F           1.81975377940209     -2.68733999770771     -1.08386116205669
  F           2.46028272307397     -0.64954655750711     -1.24855802763359
  N           3.45335182198571     -3.77386491096137      2.61003801340420
