21
Coordinates from ORCA-job NEB_product E -33.864267055040
  C           2.05909522085605      1.75696152377417     -0.58912094954711
  C           0.99401554191664      1.22591481020860     -1.54960336513556
  C           2.08215294884126      0.83378103157165      0.63310742031462
  H           3.04018616556848      1.69740679014663     -1.07361519329253
  C           1.47639529487608      0.15368119427310     -2.48598724621424
  C           1.76848839348408      3.23774280979248     -0.21129556859488
  C           0.98339164569547      3.41106447762594      1.06526440676484
  C          -0.30150148895986      3.70714337770860      1.08477381921554
  O          -0.12903264088893      1.65411787949220     -1.55877532138136
  C           3.02071299795190      3.95040720716072     -0.09222773492263
  H           1.20150286816562      3.68691984788729     -1.03675609315929
  H           1.54940536397959      3.28833070440696      1.97890510071495
  H          -0.87065305602119      3.82666823379481      0.17775663450647
  H          -0.83838648143621      3.82552071189990      2.01033990391178
  F           3.10191282843819      1.17908784055229      1.47877712499563
  H           2.26200094634744     -0.20580505731417      0.33841676355743
  H           1.14884362452460      0.90551697801391      1.20059493511599
  H           2.05000611005278      0.62907863975579     -3.28132766293434
  H           0.63076113145009     -0.36329098029419     -2.93162290252213
  H           2.12758404572478     -0.55429540757971     -1.98108171945311
  N           4.01131853943314      4.51304738712304     -0.00502235194009
