18
Coordinates from ORCA-job NEB E -38.098035417610
  C           0.86610144529691      0.71473380694258      0.82485789947726
  C          -0.47360150773410      0.31315363259433      0.89809458218000
  O           1.13733036866908      1.99720384998064      0.48929889760653
  H           1.60818029050822      0.30714484843613      1.49799677669395
  C          -0.82776087556047     -0.95566693041735      1.65399586311160
  C           1.31388861857071     -0.22010345042377     -0.95883884090788
  C           0.11066756936401     -0.62112874879847     -1.51037469319202
  C          -0.91748288531012      0.32076824990962     -1.66121096063260
  O          -1.29606799610023      0.76122912130437      0.02435220484706
  H           2.03015975862192     -0.97873052912724     -0.68210650549087
  H           1.75228849532105      0.70945063726333     -1.29084524308718
  H          -0.18090107787348     -1.65830876407333     -1.40078965101166
  H          -1.88858856778174     -0.01240703898460     -1.99503472388297
  H          -0.65570261478050      1.31913452814367     -1.98715025292745
  H           0.33352487645957      2.38816688546279      0.11008368775595
  Cl         -0.97342123271254     -0.54788464421088      3.38803757023379
  Cl         -2.36158125701984     -1.61834048538337      1.08882926525909
  Cl          0.42296659206154     -2.21841496861845      1.51080412396742
