18
Coordinates from ORCA-job NEB_reactant E -38.127260448230
  C           1.78843252058744     -0.21519538092563     -0.05812761332948
  C           1.62338273255847     -1.51717408602045     -0.31486621990466
  O           2.08737749120352      0.72711253595706     -1.00315931128159
  H           1.67180237488355      0.13308754720321      0.95630340376897
  C           1.28574368494615     -2.50361971614289      0.76569450467157
  C           3.68604056504718     -2.77745507796130     -4.36111852236076
  C           2.59141039769649     -2.58565198228134     -3.65125448714675
  C           2.46391298736542     -1.57417030602200     -2.55600407978104
  O           1.74150143293449     -2.18701133081042     -1.49339080675590
  H           3.72660169886426     -3.50274719197636     -5.15493576567113
  H           4.58444961686445     -2.20857620758016     -4.18589055346638
  H           1.69635038918449     -3.16473692685898     -3.82677210165199
  H           1.91351016019461     -0.69668051266252     -2.91991421395079
  H           3.44829750803788     -1.24667741500673     -2.20369252066271
  H           2.21382020678633      1.58123401299258     -0.57853240159758
  Cl          0.81912580271741     -1.76693667021776      2.29619173389989
  Cl         -0.05018155225458     -3.54619216954193      0.22536627107528
  Cl          2.71202198238243     -3.54470912214437      1.06480268414506
