18
Coordinates from ORCA-job NEB_product E -38.139291463060
  C           2.81606459851548     -1.19596814502562     -0.92739768598277
  C           1.47794509547683     -1.74763297355407     -0.46950859063943
  O           2.70302575720300      0.17291319952643     -1.16964694894717
  H           3.57649887934225     -1.31427328594297     -0.15141757425764
  C           1.50570175664051     -2.84591320566716      0.60502883247886
  C           3.25699035994420     -1.96158563139251     -2.20984862614849
  C           2.18826822538634     -1.91922843885823     -3.25809472163787
  C           2.13210929635239     -0.99782959128710     -4.20274741210535
  O           0.43205572550483     -1.32531572897720     -0.87280284806294
  H           3.50493372939955     -2.98945367641924     -1.95068911190618
  H           4.15438629089860     -1.45495854351387     -2.56846406115891
  H           1.42096362907327     -2.67796714732985     -3.18528146317347
  H           1.34068857756843     -0.97747128594649     -4.93166664019233
  H           2.88492759540722     -0.23085255168073     -4.29027546656772
  H           1.95137071713317      0.31560914163160     -1.76282604095618
  Cl          1.72914088370392     -1.92873722465202      2.12484786618859
  Cl         -0.02779577068330     -3.72189284595212      0.65583793203091
  Cl          2.83482465313331     -3.99194206495886      0.42525256103812
