21
Coordinates from ORCA-job P E -35.231043859310
  C          -1.23823284478802      0.48262149214975     -2.34653081820263
  C          -0.60456991797998     -1.66194005965597     -0.38242593632082
  C          -1.46133573314656     -1.87111662079905     -1.58691387638669
  C          -1.75219308923417     -0.92513188959531     -2.46240203122878
  C          -0.79568596313999      0.77055930615017     -0.91070459529076
  C           0.15426790126709     -0.33398786176046     -0.43981564293916
  H          -1.85712623864751     -2.86744020197757     -1.72071489682296
  H          -2.36211797944707     -1.14985840212765     -3.32609459485500
  C          -2.29574135575083      1.46329773516446     -2.81689056021712
  H          -1.23679931798110     -1.68271083947049      0.51067980090210
  H          -0.36374988845663      0.59175989146801     -3.00437089670171
  H           0.10347335567371     -2.48971393046171     -0.29525057620801
  H          -1.66188956265871      0.79747843256972     -0.24591412468300
  H           0.49499854479479     -0.07992037762380      0.58221374093962
  H          -0.28674031500697      1.73544512359208     -0.85669496627566
  N           1.25745665745281     -0.43537290880294     -1.38341001039965
  Br         -3.95952961770951      1.24205475357872     -1.81663637880978
  Br         -1.71694196104228      3.31996309342771     -2.62072392728511
  Br         -2.70590537382353      1.21004286113516     -4.71476389571717
  H           1.80065142543891      0.42144336730227     -1.38646581180791
  H           1.87794127418554     -1.19502296426312     -1.12862000168979
