21
Coordinates from ORCA-job R E -35.145363147000
  C          -1.41747347817898     -0.19802473339531     -2.86292592237048
  C          -0.25485948125765     -2.74146943179229     -1.77369346964520
  C          -1.50048180955442     -2.31193740154363     -1.60492345995126
  C          -1.97692124738235     -0.98472304910759     -1.94485301632039
  C          -0.78628828755623      1.58963881429761      0.35597946475670
  C          -0.06949222447513      0.49184669776576      0.15729464388853
  H          -2.23928076922209     -2.96119050149767     -1.15419461763700
  H          -2.85524052189782     -0.65117861878494     -1.40741265894922
  C          -1.88008275380720      1.14281764198758     -3.24766889734509
  H           0.03765361340746     -3.73903101706684     -1.49618378058920
  H          -0.56089608276240     -0.53634016726903     -3.43181913740430
  H           0.51686142470986     -2.10499550543253     -2.17207406454037
  H          -1.66905679472421      1.57948457198604      0.96647725410672
  H          -0.34605379480824     -0.44982651586604      0.61370427346783
  H          -0.51294499889331      2.53160977048891     -0.08872590480360
  N           1.01306748264963      0.39247303204688     -0.70421607221393
  Br         -3.25558620999039      1.90082700384708     -2.11672060916562
  Br         -0.37645628378736      2.40052979548515     -3.27837245429553
  Br         -2.60469865144594      1.07620435084267     -5.10502039443355
  H           1.39786177752951      1.28507395412817     -0.98331632137428
  H           1.72507909144728     -0.26351869111999     -0.42062485518078
