17
Coordinates from ORCA-job NEB E -33.288525976040
  C           0.48186710311854      0.46987604590974      1.02620705928470
  C          -0.77577603664840     -0.16657737379911      1.05765009076128
  N           0.56873434759873      1.81587579544936      0.53806721234129
  H           1.12179663845404      0.30956285642075      1.88682121223856
  O          -0.98371136083825     -1.02240424063918      2.08099112129189
  C           1.26944372702330     -0.46155171791041     -0.53833733956303
  C           0.32308172992322     -0.21379269407140     -1.51864308200409
  C          -0.97718037936877     -0.76152985729184     -1.33993516841880
  O          -1.59688201901283     -0.15595158737100      0.08135290628219
  H           2.24047603563658      0.00529755507464     -0.62475756297730
  H           1.29390490299379     -1.43246068509142     -0.06243206128706
  H           0.42432565658613      0.65574866531376     -2.14832621648666
  H          -1.03147659216341     -1.81854944358496     -1.09246084502457
  H          -1.74109084175773     -0.44965245118653     -2.03949515354724
  O           1.38353088025516      2.53128043527841      1.08625744083458
  O          -0.15943036658766      2.15415429665100     -0.36746326990822
  H          -1.84161342521242     -1.45932559915181      1.97450365618246
