17
Coordinates from ORCA-job NEB_product E -33.327677473950
  C           2.65227962541770     -0.99941626641394     -0.46874131563435
  C           1.12854399355422     -1.27902074947098     -0.46267106355248
  N           2.84317128906111      0.47760342565497     -0.35962693410721
  H           3.08554301685733     -1.42615549669214      0.44406247679206
  O           0.81974901170668     -2.57540999441564     -0.43191735654972
  C           3.30213017244699     -1.56755872541546     -1.74073628072458
  C           2.40036834743010     -1.43212865777062     -2.93537999525723
  C           1.93861027889042     -2.45548857315153     -3.62709707800808
  O           0.30237303502288     -0.42468508827799     -0.48116106046605
  H           4.22598707664797     -1.01375900490019     -1.92968430720679
  H           3.56663801700937     -2.61653536723376     -1.58517894391691
  H           2.14461353146923     -0.41699190994054     -3.20114021370006
  H           2.18823049212779     -3.47614746299254     -3.38160892336747
  H           1.29709557482842     -2.31775085125013     -4.47886764540660
  O           2.74715867364955      0.93315730212831      0.74973317069198
  O           3.07829982297609      1.09123582435673     -1.36495428981951
  H           1.58380804090414     -3.16574840421455     -0.47193023976698
