17
Coordinates from ORCA-job NEB E -37.724262901940
  C           0.58677085345789     -0.74708224687748     -1.96074939025298
  C          -0.47895059296628     -0.28984945377406     -1.35404814097139
  H           1.23689746926872     -1.36879001795712     -1.32666625116745
  H           0.73696808183841     -1.24669207970079     -2.89148603761428
  C          -1.73128677620579      0.16401558454343     -2.15945633380878
  C           1.17670922178633      1.29869312537459      2.17176247394265
  C           1.51939200754585      0.06415120483146      1.98510243629382
  C          -0.01437532754672     -0.50622562858039      1.44830365567942
  O          -0.55439321613805      0.07930337524999      0.38720835994777
  I           2.30151631183415      2.55427976456453      3.61643794393812
  H           0.60439248011428      2.04917099486644      1.67214064748368
  H           2.07243770189185     -0.83567847495159      1.90064264812309
  H          -0.58048893458012     -0.27069565341187      2.34682348061160
  H           0.00807403191017     -1.59448289236996      1.47441998214876
  F          -2.73579154072274      0.12065599092838     -1.29058439172113
  F          -2.29320154064706      1.31896277821859     -2.95330552851429
  F          -1.85467023084088     -0.78973637095413     -3.06654555411862
