17
Coordinates from ORCA-job NEB_product E -37.933072888510
  C           2.97284598089633      1.98149850532704      0.43251461059005
  C           1.58904947663014      1.46701504036530      0.14996324249879
  H           3.67953057868828      1.16457764113898      0.26862697317417
  H           3.21451352797603      2.81784967909334     -0.22577211919399
  C           0.61076752587664      2.56960122501130     -0.36123523356824
  C           3.03766711601025      2.42292506989733      1.90142788240557
  C           2.72840416809285      1.31533712279885      2.84061162053907
  C           1.84398192283506      1.41997902334391      3.81631137364812
  O           1.20552409175307      0.34750951366023      0.30822356566240
  I           5.06486150454226      3.15722395437591      2.29833613208721
  H           2.39634198702395      3.28495774556967      2.08179821626050
  H           3.27910214365366      0.39805307635277      2.68317083481818
  H           1.29074438212329      2.32910955935944      3.98846843006611
  H           1.63608119646817      0.59868400417121      4.47870165529569
  F          -0.61217755976162      2.10535247154346     -0.58434079353623
  F           0.50901575445053      3.57202562754371      0.52843440786512
  F           1.06044620274111      3.11230074044755     -1.50254079861252
