17
Coordinates from ORCA-job NEB_reactant E -37.930571374930
  C           2.66497491141399      1.10564518497750      0.21053494950329
  C           1.57320558031721      1.72655119415690      0.63344976497569
  H           3.32852079366598      0.58601643275051      0.87559313065263
  H           2.92129945819373      1.10960445116227     -0.83155272088456
  C           0.67003645578044      2.49049300273965     -0.31596445454229
  C           3.39996957644494      3.07427290736521      2.91304073422824
  C           3.04880069450620      1.87334432190775      3.32900016325670
  C           1.76401791254271      1.19808357806524      2.93867392540771
  O           1.06697970050710      1.83083944344990      1.88675993369926
  I           5.19941426952320      3.99404576552607      3.47608369395286
  H           2.79895817118188      3.67661395611640      2.25322749991902
  H           3.66924180291718      1.30035113302740      4.00253867148279
  H           1.06888078156733      1.22456488068604      3.78510015276263
  H           1.95888082519647      0.14667237036848      2.68786962068766
  F          -0.60244448143984      2.08488649614481     -0.24235425062242
  F           0.67482562355195      3.80439356630402     -0.04034733762620
  F           1.04313792412953      2.36672131525183     -1.59415347685301
