14
Coordinates from ORCA-job NEB E -30.327590443640
  C          -0.00464499863713      0.78317045566022      1.28411083538809
  C          -0.96397305130540      1.13196008476855      0.33407209887743
  Cl          1.51618327516399      1.60709612231174      1.22790299348791
  H          -0.33117185820541      0.56359313068388      2.29446048035025
  F          -2.23760185242478      0.71760452018321      0.66792660152443
  C           0.41089205397672     -1.02934600909188      0.47377246670595
  C           0.74236974971210     -0.68535393436672     -0.82811914374215
  C          -0.27136577563575     -0.16923463597197     -1.65821225772904
  O          -0.73703382441000      1.30652283339526     -0.88221965224939
  I           1.89319040440324     -1.85468939202282      1.73407040004413
  H          -0.55869683382820     -1.46094356204292      0.68457823173996
  H           1.77214128204628     -0.46068262767694     -1.06452151418540
  H          -1.24428628601623     -0.64704808467187     -1.63398243427204
  H           0.01399771516057      0.19735109884226     -2.63383910594012
