14
Coordinates from ORCA-job NEB_product E -30.377920657560
  C           1.89406221534020     -1.94391479486436      0.06933404665889
  C           0.55310687948437     -2.13421853027034      0.72758753832946
  Cl          1.72200912110997     -0.33223987850164     -0.73760898190988
  H           2.69315823378080     -1.84459196468173      0.80730277206168
  F           0.52284070534262     -1.53307451011971      1.93714445019698
  C           2.18339804628782     -2.99202982263637     -0.98353549712297
  C           3.40922219030373     -2.70142746680625     -1.77018014089292
  C           3.45625755101206     -2.76725082641683     -3.08854962970842
  O          -0.40351948317818     -2.67274686941247      0.30196587126408
  I           2.43092904164270     -4.89253011258009      0.07516525635265
  H           1.31414571992357     -3.13565075932255     -1.62573374866124
  H           4.28430509598734     -2.43763973624460     -1.19173414637624
  H           2.59379955593969     -3.03738088204084     -3.67547523852286
  H           4.35878512702331     -2.54950384610220     -3.63148255166922
