20
Coordinates from ORCA-job NEB_reactant E -45.359356304220
  C           1.92086565985227      0.06257566736522     -0.60192054069840
  C           1.48715215130164     -1.22250277302040     -0.65440790459985
  N           1.60629941007797      1.15623631537246     -1.44569625763928
  H           2.61254720597537      0.33199167488891      0.18404369860091
  C           1.90137973861447     -2.02496710096535      0.46479505126001
  C           2.11116160472844     -0.26914548455179     -4.35780966196137
  C           1.82928552228461     -1.32447259431282     -3.61285945984491
  C           0.54642452762791     -1.49605511910071     -2.85682152417671
  O           0.78340900781017     -1.93376773980771     -1.52277188713838
  C           3.38797088715086     -0.12598156025540     -5.13141734789333
  H           1.43811091559677      0.57123195282386     -4.45037733498112
  H           2.53392356529239     -2.14135338998636     -3.52111570303166
  H          -0.03636137970128     -2.31350766530139     -3.29296638183760
  H          -0.04185534832178     -0.57216011017440     -2.87236571095041
  O           2.41696366245374      2.05443300678507     -1.49622422435819
  O           0.53182880014005      1.16266689684630     -2.02500822851988
  N           2.23125573346912     -2.65289382934026      1.36081462829829
  F           4.10665746437938      0.93064362493869     -4.67939824020219
  F           4.18640201185500     -1.21205471226467     -4.99969422740739
  H           3.21087885941290      0.03228294006074     -6.20899874291853
