20
Coordinates from ORCA-job NEB_product E -45.353960697410
  C           2.73986271639249     -0.82955694001857     -1.91485098245672
  C           1.81623834810048     -1.75779868315676     -1.11670351655965
  N           2.84024550340901      0.50008354526631     -1.23715528839370
  H           3.74901981176600     -1.26818181349123     -1.90248924671910
  C           1.85599613513124     -1.50193183551943      0.31268224752754
  C           2.24024951180612     -0.72048754318621     -3.37442986001453
  C           0.99273719914619      0.11351774545221     -3.51298779257878
  C          -0.21497185605949     -0.41225934389887     -3.59279261818686
  O           1.16144604235309     -2.62869577571320     -1.61248271857317
  C           3.35220419616508     -0.16623657157048     -4.26827220430373
  H           2.03235270865266     -1.74592544880677     -3.70332946076670
  H           1.13896486263628      1.18359909025207     -3.53753411600987
  H          -0.37929391557599     -1.47694528181464     -3.56008626911631
  H          -1.08841706912430      0.20847457188433     -3.68185050916291
  O           3.92334370161179      0.81746030129359     -0.82864735649160
  O           1.81675366358403      1.12587478670725     -1.13067724735094
  N           1.89825799254322     -1.31229082277149      1.43918299250304
  F           3.75860525204302      1.04931889581446     -3.84065631526213
  F           4.44106502411102     -0.97166304151423     -4.22316194930248
  H           3.03944017130806     -0.07205583520836     -5.31855778878141
