20
Coordinates from ORCA-job NEB_product E -39.893896306880
  C           2.88191298376917     -1.24198565647154      0.07321714400977
  C           1.42702576125167     -1.12940176460236      0.46055988466365
  C           3.18202966310886     -0.24990089244441     -1.04744307178017
  H           3.47569049227965     -0.97618930744722      0.95579089748809
  Cl          1.06170093565498     -2.00710894875147      1.95636743989749
  C           3.13464369092240     -2.73862111400703     -0.24194946271240
  C           2.12591115998334     -3.27051779461103     -1.22453215874447
  C           1.42972515426776     -4.37263495458059     -1.01921103816749
  O           0.56781004478591     -0.54525815931974     -0.10187727019392
  C           4.54467455489228     -3.06577777492180     -0.72531399643565
  H           3.01174672867739     -3.27885037057038      0.70661518390391
  H           1.99954610242117     -2.69926170736361     -2.13293156421409
  H           1.53645792621342     -4.96077143544113     -0.12213539672665
  H           0.71958213487268     -4.73002127327728     -1.74374941020482
  H           2.69167015938393     -0.52842111052528     -1.97574447473793
  H           4.25149668934357     -0.16261548256165     -1.21735776445953
  H           2.80984886126981      0.73029134394434     -0.75886742752220
  Br          4.82247337884523     -5.00304427603683     -0.57837185930602
  Br          4.88428746450890     -2.60611664698366     -2.58729867187595
  Br          5.91496611354787     -2.20299267402732      0.37263301711840
