20
Coordinates from ORCA-job NEB_reactant E -39.876728125340
  C           2.08395587041934     -0.17312033959799     -0.75062293354359
  C           1.77537377802327     -1.12466085410774      0.12138107849351
  C           1.85099872524966     -0.29120644216398     -2.22120147440429
  H           2.51688399855513      0.74566300337773     -0.39039686220652
  Cl          2.12136696761427     -0.89659206196539      1.81922408564418
  C           3.73005591700010     -3.42635162718465     -0.35522392448902
  C           2.82972049589279     -3.89948604801677      0.49208514332315
  C           1.40681836496686     -3.43611333022212      0.53259692570465
  O           1.14882683904304     -2.27425176099332     -0.22547319874369
  C           5.15590883679126     -3.80242008068057     -0.41818555628067
  H           3.45877040439954     -2.67807367028418     -1.08982357349623
  H           3.07808964955079     -4.65401189674298      1.22565260721086
  H           1.11270585161414     -3.28731788564369      1.57998737031161
  H           0.75566463628336     -4.20344575740620      0.10033400625044
  H           1.45522069480633     -1.27127367429797     -2.47069303081992
  H           2.78269031537901     -0.12387520368860     -2.76080776235047
  H           1.13988951467419      0.46597817699914     -2.54753737129876
  Br          5.57795051656648     -4.47090604564795     -2.22615262657454
  Br          6.25836258635670     -2.19212461555478     -0.10438298695917
  Br          5.70484603681374     -5.15600988617801      0.85694008422849
