40
Coordinates from ORCA-job P E -43.246963765100
  C          -1.53243811616678      0.26379528205442     -2.21955753197055
  C          -0.39390115267357     -1.83547605386303     -0.87238607361889
  C          -1.83081631683158     -1.93845295623546     -1.26983134194829
  C          -2.37961922937836     -0.94266737838222     -1.94659870393699
  C          -0.91587844496393      0.66116456724979     -0.86440642157309
  C          -0.08151826030819     -0.46854233175456     -0.22299806562640
  H          -2.37729070483826     -2.83215309874740     -1.00863412451981
  H          -3.41121419650133     -0.96784580416597     -2.25737403457883
  C          -2.27262296043248      1.41008272571399     -2.94716269493611
  H          -0.13121372870125     -2.64055868222718     -0.18742860333540
  H          -0.70625738787269     -0.04356719183402     -2.87418951335051
  H           0.21541597265167     -1.94931187004159     -1.77382791115124
  H          -1.73176681282712      0.91881748360561     -0.18778308733825
  H          -0.39389120663097     -0.54736282087574      0.82461668885133
  H          -0.30282456977349      1.54894504960294     -0.99013827397381
  C           1.44160135873838     -0.16617867169233     -0.18803577371964
  C          -3.45536108263085      1.93869260615609     -2.13253349786646
  C          -1.30994691921077      2.56986839512009     -3.23153406999275
  C          -2.77905876623287      0.88764566339416     -4.29772632334426
  H          -3.11498950630885      2.41204644854626     -1.21499718045928
  H          -4.14225557806010      1.13845269999907     -1.87052779022153
  H          -4.00233239087979      2.68057800724805     -2.71099048972219
  H          -1.01889555249589      3.08070584889298     -2.31737087931549
  H          -1.79036030844275      3.30066313054809     -3.87888911251132
  H          -0.41243233928778      2.21236829869777     -3.73258041738540
  H          -3.49683042177443      0.08244537151678     -4.17065880046067
  H          -1.95067535151348      0.51255751032625     -4.89534620457532
  H          -3.26557552724550      1.68720358775903     -4.85273069884706
  C           1.69972747369923      1.02202453352536      0.74786307412808
  C           2.20176748677126     -1.36974038418727      0.38421864714509
  C           2.01075358553781      0.15616339463639     -1.57202818378239
  H           1.34442067954040      0.79920337155886      1.75172293103692
  H           1.20078725754731      1.92421502950695      0.40488964980065
  H           2.76611605988953      1.23088475129138      0.80286077907001
  H           1.76777862926342     -1.68379706941275      1.33114144345840
  H           3.24139091374764     -1.10143894219091      0.56122441527274
  H           2.18749219137446     -2.21239628610929     -0.30118779140304
  H           1.55094289146889      1.04473899711670     -1.99526058721631
  H           1.86165118587476     -0.67053324925354     -2.26221711568913
  H           3.08123114587831      0.33632003690626     -1.49528633039280
