18
Coordinates from ORCA-job NEB E -38.851574775530
  C           0.38404083923106      1.49563426313736     -0.27584696166435
  C          -0.08120584516675      0.79524335927340      0.75712554526019
  Cl          0.01748046160552      1.21715913175837     -1.93113447426826
  H           1.10785576205333      2.27810379021498     -0.12224195600930
  C           0.36606860472687      1.16918885771746      2.15885578252434
  C           0.55629341826817     -1.77198387293930     -1.12786001774830
  C          -0.68901725890361     -1.12155660839046     -1.43099342579673
  C          -1.61639544181130     -0.67374157220835     -0.34818150555292
  O          -0.96397235486187     -0.22372538033951      0.82928013724107
  C           1.77240032125156     -1.16184494915579     -1.09818498246325
  H           0.52863381619506     -2.81979610118695     -0.85151832584609
  H          -1.14286290395898     -1.23504581160707     -2.40922983371067
  H          -2.21828916235972     -1.52552117983463      0.00358667458971
  H          -2.30741125553359      0.09499536688163     -0.71820043075255
  F           1.59133136976050      1.72386793644048      2.17075230643510
  F          -0.47282260417184      2.09929097712648      2.68201921512761
  H           0.35984218758163      0.29513009453180      2.82661444315249
  N           2.80803004609395     -0.63539830141990     -1.11484219051808
