18
Coordinates from ORCA-job NEB_reactant E -38.955945207010
  C           2.11346941536947     -0.61008056565149     -0.15847519423453
  C           1.40027996527834     -1.34215367010329      0.69704074870656
  Cl          2.31378657916101     -0.83678604312258     -1.85108782083020
  H           2.65043355566193      0.24621485531292      0.21850585480249
  C           1.39655092703702     -0.90406357363833      2.15084075626735
  C           2.16109623003672     -4.18877579566369     -2.28310103129875
  C           1.85230641813894     -3.80209829669991     -1.04733951384473
  C           0.56542673779810     -3.13087517361247     -0.68305602397380
  O           0.63113571323749     -2.44741861959060      0.55788246682762
  C           3.36944563699712     -4.84521062844169     -2.58656816180047
  H           1.49907105926583     -4.01436921233867     -3.12147851124187
  H           2.53297950047457     -3.98348056053226     -0.22601535089867
  H          -0.20526391725658     -3.89323796080166     -0.51277284869864
  H           0.22025858627562     -2.46459125223456     -1.48073530858790
  F           2.63979768550647     -0.97640372696968      2.68325125185827
  F           1.01620440812532      0.38771346563131      2.27505920512478
  H           0.72267767020392     -1.52875974386620      2.75419165770862
  N           4.34954382868871     -5.37982349767718     -2.84644217588615
