20
Coordinates from ORCA-job NEB_reactant E -29.436186963400
  C           1.79673421258932     -0.01255117519846     -0.29673980560032
  C           2.02890133568219      1.16700469983970      0.28077665265048
  N           1.71992745712660     -1.21664933592102      0.39668170502490
  H           1.73967588398384     -0.07398681857537     -1.37133799753872
  O           2.31386300671047      2.28881549225086     -0.46857281479921
  C           3.90025885376473      1.56760950527920      4.61279371468049
  C           3.11771124313121      2.00546850664584      3.64534643468582
  C           3.29791906098638      1.66957310401840      2.20069638136293
  O           2.02680969238275      1.31827598986742      1.65193969126275
  H           3.74403264447874      1.84815356684573      5.64007722145588
  H           4.73853737162910      0.92011712544825      4.41443563912998
  H           2.27335930632337      2.64739722049703      3.85493156542232
  H           4.00104704830041      0.83599217531895      2.07068190162333
  H           3.69757591401085      2.54246487959435      1.66191636188621
  H           1.61781954448705     -1.07459637908380      1.39313542199895
  H           1.03655080591250     -1.86282923675747      0.02972842166936
  C           1.42371567410139      3.37212043293060     -0.25841981694310
  H           1.85768943703619      4.22799436591398     -0.77176966612487
  H           1.31371639017137      3.59659879123689      0.80626942814318
  H           0.43725511719154      3.15002708984891     -0.67897043999037
