17
Coordinates from ORCA-job NEB E -36.542912244830
  C           0.65923597319516     -0.18494507044402     -0.87894323122842
  C          -0.77371608266604     -0.47695222845255     -0.71746562762316
  I           1.84754557089718     -1.82019460648736     -1.70293689278392
  H           0.79559938200979      0.59775706271318     -1.62312420958338
  N          -1.61868773823138     -1.07770302724593     -1.62423519251166
  C           1.43312619210469      0.23788163507863      0.43004809225746
  C           0.52031224300127      1.08421421607383      1.29050392456507
  C          -0.93691962972747      0.97405325017366      1.14025131370340
  O          -1.39895373847263     -0.08623798542610      0.40015277920973
  O           1.91932930209427     -0.88501021169533      1.11195282464543
  H           2.28680258246630      0.85603358249929      0.16876997846184
  H           0.83454374228845      1.91758618462390      1.89298358984778
  H          -1.27720009684942      1.92433687663623      0.67266745874255
  H          -1.47544999474905      0.95125770027429      2.10089833661767
  O          -2.80667933424693     -1.12357197862966     -1.32346961016850
  O          -1.14209066837179     -1.48145397407115     -2.67953346411925
  H           1.13320229525764     -1.40705142562090      1.34147992996735
