19
Coordinates from ORCA-job NEB E -35.937496692520
  C           0.31308663631580     -0.03366399631304     -1.28080599340168
  C          -1.12684307047912     -0.38235945057834     -1.18761513122387
  Br          1.38699387850209     -1.57022730247989     -1.79400339781127
  H           0.53290652532350      0.76737771922947     -1.98425977444173
  N          -1.91942072760942      0.65896392277097     -0.83049044366458
  C           0.64206034289666      0.40613196331221      0.19781025921318
  C           0.10737535807781     -0.53705190711636      1.09254238693772
  C          -1.02876753098638     -1.44197746402108      0.82165848404389
  O          -1.38759930281653     -1.56094937320462     -0.56423296347027
  C           2.02958839644920      0.95038619456623      0.47349028913019
  H          -0.10355420587747      1.35694734993303      0.07319131516180
  H           0.57330841258954     -0.66601166106965      2.06000110063252
  H          -1.93178925803843     -1.06308433807002      1.33198718090813
  H          -0.83046874733016     -2.44710788434787      1.21014016593258
  O          -3.08603435800495      0.52217451034239     -0.48489529719592
  O          -1.30432363064505      1.78828099853197     -0.75702901499337
  H           2.77742440277422      0.17738515677023      0.30240466893325
  H           2.24589484740768      1.78837987931256     -0.18386160810887
  H           2.11016203145104      1.28640568243181      1.50396777341827
