19
Coordinates from ORCA-job NEB_product E -35.977229158420
  C           2.40657923685268      1.22046480984064      1.66457643061795
  C           1.36971673495812      2.26455025038691      1.43976242822085
  Br          1.41683172646473     -0.37836783682256      1.03360084782707
  H           3.24861283448465      1.32821692565230      0.97719749396692
  N           1.33118146320732      2.76463791633926     -0.03168720065327
  C           2.84586529541752      1.07924069605658      3.12017341673797
  C           3.71859289191344     -0.13303328468501      3.27422913539271
  C           3.41004040257059     -1.17338299858845      4.02347394721313
  O           0.56673024475718      2.71440159305617      2.18406504979888
  C           3.60813900990258      2.34419924332771      3.52540164739693
  H           1.95477007961227      0.97480081043100      3.74744124188947
  H           4.64538657979730     -0.10548624547076      2.71642549352860
  H           2.49003359987332     -1.21850795587842      4.58268680652586
  H           4.06236569739326     -2.02470514427996      4.10801947659589
  O           0.37337785707460      3.42145859072212     -0.32543741625672
  O           2.27089768129722      2.47339730375979     -0.73183861151001
  H           4.47381559003256      2.49476581244089      2.88326728124834
  H           2.96764907584543      3.22084526479893      3.46462319437788
  H           3.95431399854524      2.24360424891286      4.55061933708154
