18
Coordinates from ORCA-job NEB E -38.459457905140
  C           0.53648949370465      0.45682122140784      0.00200173388305
  C           0.97029137225993     -0.38829269973299      1.02117556825078
  H           0.42782714126393      1.47067667865616     -0.50256454276747
  H           0.98755859289838      1.51719651338466      0.47582379504063
  C           1.74344954357474      0.24906862875856      2.23070350572429
  C          -0.23774540826540     -0.29180285156070     -1.10994553610495
  C          -1.69978738107868      0.08053213904013     -1.12907739466281
  C          -2.65923841567015     -0.75834696347768     -0.79069518776541
  O           0.81025310351592     -1.59894046421736      1.09022278466179
  C           0.35725975589854     -0.02266052771458     -2.40019432233854
  H          -0.12676134758446     -1.35775795947914     -0.87414371206213
  H          -1.92677723056673      1.09430368136576     -1.43640721149236
  H          -2.44341727366576     -1.76783564724680     -0.48358412558974
  H          -3.69550302061308     -0.46710838785924     -0.79748878930314
  Cl          3.34413765585781     -0.48911356834879      2.36363859300858
  Cl          1.96548381446219      2.04960223486785      2.03235898067240
  Cl          0.82305349794541     -0.02507605242345      3.71667495303883
  N           0.82342610606277      0.24873402457977     -3.40849909219381
