18
Coordinates from ORCA-job NEB_product E -38.594175630050
  C           1.32440028159247     -2.00009985849530     -0.58516866804769
  C           2.53914512132767     -2.76818484459929     -0.14241824307125
  H           1.51068823432317     -0.92635049038172     -0.54399528221308
  H           0.52117660734419     -2.23121287393934      0.12146526549891
  C           3.44275663522779     -2.00666599289144      0.84986575206163
  C           0.88671994806381     -2.43258674970169     -1.99739476429846
  C          -0.45089565701017     -1.84300253129993     -2.36081972361914
  C          -1.48317311902076     -2.56245799757862     -2.75497225084167
  O           2.83190042072354     -3.86523549767141     -0.51310674146446
  C           1.87162341377125     -1.97498846045393     -2.95696928198757
  H           0.84799138658968     -3.52671461735062     -2.04648260365648
  H          -0.51228961626962     -0.76563148071775     -2.28892719811755
  H          -1.43251922621320     -3.63573823413693     -2.83976911977659
  H          -2.42381529916561     -2.10713542939002     -3.01152305487264
  Cl          4.63801607539849     -3.08176818070380      1.57536017333234
  Cl          4.26814632225556     -0.75107737603814     -0.11885283067915
  Cl          2.48361334136947     -1.23491449612491      2.12464628297513
  N           2.63591512969228     -1.58143488852515     -3.70873771122227
