18
Coordinates from ORCA-job NEB_reactant E -38.585959735550
  C           1.35185409840090     -0.61597310506936     -0.59539309669204
  C           1.58967619949115     -1.69455769732514      0.13766747247588
  H           0.77487609536379     -0.65496271010909     -1.49988083542085
  H           1.74030510063529      0.34162298012130     -0.31119722474800
  C           2.41480149001672     -1.69584787906232      1.40049319407278
  C           0.43047799532852     -2.76381181741834     -3.66124495373837
  C           1.04034831954651     -3.05162459203117     -2.51293310630717
  C           0.32781478095796     -3.19934449706767     -1.20457309811867
  O           1.15964925637733     -2.96367257011148     -0.08807522791409
  C           1.12517765046136     -2.66849820864733     -4.88310004605446
  H          -0.63724706193096     -2.59108880875237     -3.71738436342825
  H           2.10820023067346     -3.22171165453842     -2.48147918555152
  H           0.01387350774510     -4.24328740468370     -1.08197320534561
  H          -0.56574978827703     -2.56171618789375     -1.16237378549779
  Cl          3.80745312980699     -2.78755190827697      1.17534973270151
  Cl          3.02140253337332     -0.10408641521033      1.84458403590480
  Cl          1.42353362420989     -2.31651391580591      2.74597929880217
  N           1.67675283781968     -2.58167360811792     -5.88406560514032
