18
Coordinates from ORCA-job NEB_product E -40.797527261140
  C           2.13561201023119      3.25440959443622     -0.11592224425279
  C           1.05912707516050      2.16679628135768      0.14404313235934
  Cl          3.59640082554732      2.54347281556525     -0.88278486306173
  H           1.70754750594646      3.95097778574849     -0.84749444486075
  O           1.20549471783757      1.03084781042111     -0.50276146663235
  C           2.42542715583647      3.97454097246196      1.20881631392084
  C           3.32969228948023      3.15503865771291      2.09210048105891
  C           2.89172253586298      2.48883301123588      3.14270351735804
  O           0.14304081479160      2.39485148914809      0.87736051323078
  C           2.96646054448184      5.38868598320810      1.04996482403639
  H           1.44410347611184      4.06456343412480      1.69984982722009
  H           4.37348651931540      3.13073113851535      1.80937197004113
  H           1.85379033550817      2.49904967648962      3.43141772312848
  H           3.55762978257917      1.90181279353053      3.75017811127616
  H           2.03606573554071      1.00338661962534     -1.01682269275947
  Br          3.15152008992322      6.19355188067519      2.82624473320956
  Br          4.70468965904412      5.47668457267268      0.18521571177301
  Br          1.72918892680119      6.51196548307080      0.02231885295436
