16
Coordinates from ORCA-job NEB E -30.927518088060
  C           0.65134452103460      1.23807392207164     -0.02573746408424
  C          -0.50464005868493      1.39647975516124      0.73656391466747
  C           0.54968328179471      1.25617198116801     -1.43583264116008
  H           1.59571708926957      1.60038280212060      0.36282777448130
  Br         -0.16987687837485      1.87723748895147      2.62638212944097
  C           0.83945651695980     -0.84515109212730      0.14848948865202
  C          -0.44344611567134     -1.19838023870662     -0.28231768850472
  C          -1.55573756854918     -0.90356125705837      0.49429261051616
  O          -1.61981935563840      0.93686527475564      0.46477937961002
  O           1.94610951149661     -1.11359787360220     -0.55529126171187
  H           1.06089883080120     -0.80781696113887      1.21060006026140
  H          -0.58094953566111     -1.38924989595374     -1.33921005447368
  H          -1.47819731402549     -0.95273343193455      1.57201300061631
  H          -2.53740848625510     -1.10857502333766      0.09829875930762
  N           0.50140766291664      1.25130478721438     -2.58067859751068
  H           1.74545789858728     -1.23745023758367     -1.49517941010799
