16
Coordinates from ORCA-job NEB_product E -30.953347297330
  C           2.68320315161997     -1.42806457950469      0.38760436573117
  C           1.83540803338706     -0.84960589499412      1.48227486718563
  C           2.26937239271396     -0.86884135299451     -0.88327762319381
  H           3.73243777908096     -1.14279005828088      0.54443599614989
  Br          2.08606147505325      1.08585212189577      1.64571971514314
  C           2.60805577268676     -2.97969432581881      0.36450917377474
  C           1.31929845217938     -3.45465630318624     -0.24825811628066
  C           0.33793772193675     -3.99957784582967      0.44412813426008
  O           1.08817199045223     -1.40596192461448      2.20582920601626
  O           3.74151319192871     -3.39943763749608     -0.36211809786534
  H           2.67316138812314     -3.32904238452335      1.40894567846828
  H           1.25312101391641     -3.31849807018083     -1.31952855069306
  H           0.39948802867068     -4.12806741760965      1.51212317080003
  H          -0.57340803476610     -4.32242753900419     -0.02787096371105
  N           1.93302717459322     -0.44588502784366     -1.88783960294221
  H           3.64965046842364     -4.33160176001461     -0.58497735284308
