26
Coordinates from ORCA-job NEB_reactant E -35.771644568860
  C           1.23345516955374      0.11626773212824     -0.38127065658511
  C           1.49187437379147     -0.53307020215461      0.75611812452720
  N           0.66950377894416     -0.46970825881144     -1.51253844593881
  H           1.53046470839080      1.14790398014872     -0.49503500722388
  C           2.13086725211257      0.11132681007504      1.95558623756411
  C           3.58553544155199     -3.67304812898123      2.06958216859339
  C           3.31686002278086     -2.85527286400051      1.05916206318359
  C           1.97722856622903     -2.83356847452090      0.38497100753592
  O           1.08718614453799     -1.85791946363779      0.92218806861749
  O           4.72788158740610     -3.78675520404834      2.78622433702645
  H           2.85563792136488     -4.38648346007379      2.42867564111870
  H           4.03402735251714     -2.13208642824221      0.70142744532704
  H           1.45693505025271     -3.78307901025718      0.53538553333029
  H           2.11303282607151     -2.65608614111321     -0.69078879040450
  H           0.16175747331359     -1.31620956470972     -1.28934155851967
  H           0.12174811101015      0.16286379260838     -2.07678202861971
  C           1.09215738987517      0.37505848153863      3.04676763801495
  H           2.60609343282276      1.04696457878469      1.65676000512143
  H           2.89518882812554     -0.55875200482855      2.35655740385353
  H           0.34304644502037      1.07978254300164      2.69327064176462
  H           1.56579656329251      0.78417228999308      3.93654014838398
  H           0.59416019521835     -0.55464138837437      3.30966090806799
  C           5.78883266957456     -2.92029557241445      2.46123305683902
  H           6.59922338283126     -3.16506308911330      3.14549899114839
  H           5.50193495952590     -1.87234554657643      2.59512032176382
  H           6.12217035388491     -3.07135540642039      1.42962674550979
