26
Coordinates from ORCA-job NEB_product E -35.771278882590
  C           3.10879202253531     -0.74540045908456      0.85633543887571
  C           1.67962081841062     -0.29109467597173      1.14771637708195
  N           3.41716150540987     -0.71725056477913     -0.56457317991043
  H           3.82232602932163     -0.10837429739112      1.38980550302177
  C           1.44202958890469      0.28719246932757      2.52361401368871
  C           3.26667141086960     -2.19299771998926      1.44008428624568
  C           2.64072372732089     -3.19273325160033      0.51064828070460
  C           1.45068644634314     -3.72443618626960      0.71481942092747
  O           0.81923762899810     -0.38589946298475      0.30673664208118
  O           4.60274330580452     -2.46418501793831      1.79533910205330
  H           2.74295436495500     -2.22311935182911      2.40327257653236
  H           3.21635247753752     -3.43937766823004     -0.36859469998868
  H           0.85995306576590     -3.48350610624929      1.58355304007508
  H           1.01160079603550     -4.41770896185099      0.01811927018573
  H           2.64536285343689     -1.14886588895081     -1.06810032178165
  H           3.47324630277032      0.24569680605045     -0.88247326722126
  C          -0.01929047452475      0.19276076674176      2.94481824027499
  H           1.74275818747603      1.33863768151484      2.46887848043957
  H           2.09720773306698     -0.19970456161446      3.24748196372793
  H          -0.65433104962662      0.62933817998016      2.17835976270200
  H          -0.18255716114029      0.71816801518628      3.88212283927537
  H          -0.30875480841856     -0.84758572789032      3.07209970437114
  C           5.52654601931325     -2.60964498894856      0.73336299072973
  H           6.51144092163772     -2.46466055595528      1.17553398359735
  H           5.35514230923737     -1.86595168007690     -0.04707428243955
  H           5.47717597855939     -3.61469679119652      0.30101383474993
