27
Coordinates from ORCA-job R E -34.990653013760
  C          -1.25116984780609     -0.21917136041808     -2.80158722562556
  C          -0.41895337445511     -3.12004291898712     -2.57971390811216
  C          -1.42527164061142     -2.53621591728534     -1.93692861612778
  C          -1.87294366022219     -1.16585901358291     -2.10124073977506
  C          -0.84037252583153      1.97665360689960      0.38182484238723
  C          -0.32904256672685      0.75240113943057      0.25979083442347
  H          -1.99165118526859     -3.11552238042742     -1.21806023181926
  H          -2.79104162718044     -0.91074810929301     -1.58659721046571
  C          -1.75912473812045      1.17838742361081     -2.92092172627579
  H          -0.15194736866000     -4.14582004885542     -2.39276531555294
  H          -0.32333384375653     -0.41167322729799     -3.31705289138668
  H           0.16928592519537     -2.60346317620901     -3.31792249159669
  H          -1.74255085191207      2.13115867081598      0.94502155443364
  H          -0.82499954101061     -0.08214172058075      0.73930668662721
  H          -0.39065893114003      2.85135073456330     -0.05081255830542
  N           0.75395161627575      0.37292688582582     -0.49184976740213
  F          -0.87086857981111      1.96168316330261     -3.62092140126816
  H          -1.87803782086841      1.64342317985279     -1.93274290445701
  H          -2.71002385106897      1.22451802319091     -3.46685537364468
  C           1.42630813306758     -0.85375131902736     -0.14924107721055
  C           1.58353381863267      1.38942490704186     -1.08926090191530
  H           0.69707832176868     -1.59130803970772      0.18117952009075
  H           2.17188867190753     -0.71517069769205      0.64629385225646
  H           1.93420162022398     -1.24769094014160     -1.03092317815184
  H           2.13079845693856      1.97787771771038     -0.34127971770913
  H           0.96705670285957      2.06326593848254     -1.68151369210755
  H           2.30427868758071      0.91322747877861     -1.75233636130934
