27
Coordinates from ORCA-job TS E -34.975742624400
  C          -1.34078276773591      0.46744160260786     -1.11438454511282
  C          -0.13480016018588     -2.06514080485871     -0.38819031957869
  C          -1.46544063020806     -1.89459136470710     -0.53633847627711
  C          -2.07221793726205     -0.69454637814075     -0.96382917526167
  C          -0.73214178276813      0.93443768034987      0.77869020314483
  C           0.20833954367860      0.04249979333948      1.24396572928687
  H          -2.12765164704824     -2.68932974369055     -0.21594327457578
  H          -3.14961693367874     -0.62441947547350     -0.90390661983925
  C          -2.04717391473752      1.71282352837416     -1.57174205306764
  H           0.26255718254208     -2.97401760029857      0.03183203958347
  H          -0.33047986498935      0.40033745442229     -1.49163723076915
  H           0.57989770422792     -1.39332095934493     -0.82344026712282
  H          -1.70506650716530      0.88021124775713      1.23800808154816
  H          -0.10563446128130     -0.78526334410272      1.86006602281753
  H          -0.42347087633799      1.92714103280822      0.49856654061048
  N           1.56229422242398      0.16040879758985      1.11858989332932
  F          -1.18707566647709      2.79007156488365     -1.60016346731665
  H          -2.87459655203047      1.98728641615230     -0.90955063300904
  H          -2.42035288055197      1.59833164568512     -2.59747867578561
  C           2.40426414081619     -0.92306312204780      1.55290787930028
  C           2.17327301946234      1.01859021363463      0.13587973605800
  H           1.92911522715037     -1.46016188393112      2.37056842883208
  H           3.35662172674007     -0.52163501288640      1.90434938084689
  H           2.60776314065963     -1.63262243646658      0.74085996752384
  H           1.51387871078784      1.84257116083307     -0.11752803225503
  H           2.41720285291598      0.46950305762331     -0.78243825811197
  H           3.10129511105302      1.42645692988778      0.54228712520152
