20
Coordinates from ORCA-job NEB E -52.684396359550
  C           0.56647474684024      0.72607801319437      0.37819614027432
  C          -0.71770933965527      0.25136630832294      0.71476330449109
  C           0.63192696432863      1.95679637883621     -0.49599174729659
  H           1.28710316765087      0.82063251217591      1.18934002903441
  C          -0.95128992232895     -0.32924408380743      2.08260389946003
  C           1.27663758840941     -0.63545586102368     -0.82060111429170
  C           0.23851223221252     -1.54190073403866     -1.05530397033535
  C          -1.00957819102557     -0.99484287519511     -1.46151611667291
  O          -1.55047345130638     -0.09980400044945     -0.19920536090059
  F           2.36209893719042     -1.09565960508552     -0.18310009789112
  H           1.57462260253766      0.05275704569109     -1.60830926318113
  H           0.24946476064472     -2.46306124203381     -0.48823407446822
  H          -1.82873276428630     -1.69506180098798     -1.57840372867497
  H          -0.98411795143034     -0.24262432617344     -2.24397725303771
  F           1.88848493434989      2.26324840905149     -0.83781934857120
  F          -0.06210392448669      1.86742253855743     -1.63642794646805
  F           0.14602732740624      3.01715498818288      0.16395925401103
  Br         -0.53100391567941      0.96026916604994      3.47514206208140
  Br         -2.78893755418322     -0.88962650658644      2.24475922647531
  Br          0.20259375281153     -1.92844432468073      2.36012610596194
