20
Coordinates from ORCA-job NEB_product E -52.722362750640
  C           2.50587436517598     -1.63088353061937     -0.20128508146685
  C           1.22488176949023     -2.13165280323010      0.43973791084452
  C           2.26631418083192     -0.29895965052835     -0.91447481255412
  H           3.29022626334751     -1.45731050416454      0.54327212431782
  C           1.28964660613228     -2.42949543640948      1.92995119679647
  C           3.00583833230611     -2.69206420904486     -1.22711906693587
  C           2.09727466928944     -2.85802724497276     -2.40604418690033
  C           2.43941484063724     -2.48974927353349     -3.62604396038044
  O           0.19968635251150     -2.28122668439766     -0.15385198167111
  F           3.11065859892644     -3.88503023603542     -0.54476207236659
  H           4.02259962906190     -2.42518627906337     -1.54252960409176
  H           1.13903609163434     -3.30863402359232     -2.19389693671570
  H           1.76758392250970     -2.61705028816662     -4.45566264746044
  H           3.39474854448155     -2.03914251379264     -3.84076203878534
  F           3.32854241122188      0.03656374828057     -1.65992314867111
  F           1.20831293698349     -0.29014649060981     -1.71783514072432
  F           2.09341037714145      0.69106420564193     -0.03132601864676
  Br          1.26988863119544     -0.65256904605678      2.77615307456857
  Br         -0.28222237226725     -3.40981244893137      2.45342609583844
  Br          2.87198384938886     -3.38298729077355      2.49387629500492
