20
Coordinates from ORCA-job NEB_reactant E -52.719885340260
  C           1.70371923334712     -0.17618960974164      0.05107597440384
  C           1.59696705891651     -1.49125953620371      0.27800932096955
  C           2.03286172626770      0.53977712656869     -1.21461112569448
  H           1.53221834699202      0.51377675294398      0.86246466672678
  C           1.29271979199177     -2.00360705758067      1.66764462761730
  C           3.55941762652960     -4.42757325623947     -2.66880620432426
  C           2.39804322271764     -3.94200089944008     -2.27232617985922
  C           2.22114296705397     -2.52069141588336     -1.84735096907984
  O           1.76735355972976     -2.56126254993826     -0.49223779360705
  F           3.69299780202494     -5.69664808530567     -3.05557678933595
  H           4.48692783986310     -3.87707311544906     -2.74763524859535
  H           1.52667315763947     -4.57674406015255     -2.21847434855341
  H           1.46295991122938     -2.03584994120792     -2.47185891183932
  H           3.16843692104760     -1.97969881768070     -1.91436341705692
  F           3.27998208600478      0.29828589092316     -1.67062987113241
  F           1.20591086963227      0.24678098724760     -2.23777157894008
  F           1.95234087021570      1.85924462436241     -1.03390876817822
  Br          0.41160232470664     -0.75129060100628      2.83832167165864
  Br          0.18183527638095     -3.58669045450350      1.54875141412033
  Br          3.01038940770907     -2.51268598171296      2.47238353070008
