22
Coordinates from ORCA-job NEB_product E -41.713282511440
  C           2.55965428919732      0.79904292683220      1.07652163643204
  C           1.57575683288003      1.26337608767085     -0.01107676792264
  O           2.09529996208685     -0.31666489663610      1.77998607304089
  H           3.52713346446843      0.56610901688969      0.58765547686673
  O           2.10683299948918      2.12506932273466     -0.89861355787176
  C           2.75751370510179      1.97146810315592      2.07487707358311
  C           1.68301024372384      1.96160165180667      3.12455831156780
  C           0.77448330009302      2.91014582796740      3.23857684309826
  O           0.43599453554979      0.92104764819110     -0.07994204583293
  C           4.14625137839750      1.88556271654655      2.71267993926766
  H           2.73271960020662      2.92259257182236      1.52973289925710
  H           1.68961695329636      1.09777400863143      3.77059175336533
  H           0.75034174960893      3.76424719825038      2.58110791663504
  H           0.00846064967223      2.86677884865862      3.99214150279057
  C           2.09622456383847     -1.51262017548216      1.03525251565048
  H           3.10461806256016     -1.74706443036403      0.67160393840429
  H           1.40594470828256     -1.46123049828273      0.18868243470352
  H           1.76960473601985     -2.28874731260343      1.72299388657957
  H           3.05001771444110      2.29003580579490     -0.75997834255997
  F           4.41514851252564      0.66743122388330      3.21571699410892
  F           5.09557846248269      2.11585564534277      1.75965759363141
  H           4.29179357607763      2.62788870918966      3.51197392520457
