22
Coordinates from ORCA-job NEB_reactant E -41.690698735940
  C           1.44040499172680      0.26179806048515      0.16820255708588
  C           1.34228058378633      1.48126011541375     -0.36667601217553
  O           1.17645413320260     -0.05419862169314      1.48846757982505
  H           1.71571877114184     -0.57446576092876     -0.46629459453063
  O           1.52334025793716      1.69453794680726     -1.70241807765046
  C           2.98719193940064      2.02699983764097      3.17152086411668
  C           2.61313114614315      2.59418629320143      2.03777337195800
  C           1.18673367692280      2.77465702255245      1.61787267979436
  O           1.02360224748648      2.66221197163549      0.21941218407145
  C           4.41594804952138      1.85292433382828      3.58564490136897
  H           2.27485049820790      1.62722655208397      3.87756646163030
  H           3.34832284014542      2.96831193310973      1.33735289345543
  H           0.86712459089843      3.79937225037682      1.83832361854896
  H           0.53622493661998      2.06976811711275      2.14617920805578
  C           1.99598561673281     -1.08041651049279      2.00012186715319
  H           3.04260278032711     -0.76680822099348      2.06438132512172
  H           1.93153101708207     -1.98142970666880      1.37966623660675
  H           1.62305846046453     -1.30281177337811      2.99790403851190
  H           1.65800894238020      0.85699380094965     -2.15821418818597
  F           4.69036736755234      0.53600983249227      3.80804438498729
  F           5.28644821314975      2.25842843444511      2.63278465930672
  H           4.66336893917028      2.39214409201998      4.51658404094416
