17
Coordinates from ORCA-job NEB_reactant E -36.886383732330
  C           1.60141498351678      0.02632643179340      0.17055658609846
  C           0.98651875781569     -0.97934208923479     -0.46364335942285
  C           1.94538028287116      1.24874235484547     -0.57004965979644
  H           1.84961678478552     -0.05847342084993      1.21402395920615
  F           0.66516332958927     -2.09875686640626      0.19519947832733
  C          -0.07243847630377     -2.45482477880001     -4.78554820145327
  C          -0.31177361129314     -1.66682172329561     -3.75608475133386
  C          -0.01734243092077     -2.03892559087962     -2.33713263106108
  O           0.66569483550406     -0.93278929611176     -1.73802271500500
  H          -0.31304634786528     -2.15644583682834     -5.79034398573583
  H           0.36219104763589     -3.43365250231184     -4.66590287988199
  H          -0.73997098607551     -0.68281870518119     -3.88073823307005
  H           0.60969686711463     -2.93553705899933     -2.28069100821557
  H          -0.95112899387256     -2.22251390118017     -1.78823940342786
  Br          2.78433726701441      2.56006239071174      0.58345788566196
  Br          3.18279790211917      0.87440640400420     -2.06945389549496
  Br          0.35338878836444      2.08696418872405     -1.37998718539513
