17
Coordinates from ORCA-job NEB_product E -36.903282529310
  C           1.65907889803685     -0.63789668123609     -1.43586494430823
  C           0.78834812061582     -1.10524864094725     -0.29673040919728
  C           1.50143593382554      0.86011559898143     -1.64201791636865
  H           2.70212854737162     -0.82248407728051     -1.13786646842412
  F           1.13437012754800     -2.36801222034279      0.05595093883747
  C           1.38327645063124     -1.52066807096382     -2.68044213788847
  C          -0.03767413796900     -1.46465720482735     -3.16863846512246
  C          -1.00805127218735     -2.20323661981490     -2.66299953392940
  O          -0.07779483343759     -0.54894069234348      0.27238614937367
  H           2.06727329676259     -1.22114223335534     -3.47667649278392
  H           1.62860958632304     -2.54679207426591     -2.39498952963145
  H          -0.23777091339198     -0.78407882915721     -3.98394658326752
  H          -0.83932431508527     -2.90291021946187     -1.85983381608697
  H          -2.01605357616350     -2.13927607232236     -3.03200443490095
  Br          2.13275473146876      1.79643781965578     -0.03187628730553
  Br          2.61410675445535      1.45957386007459     -3.12784991093147
  Br         -0.31761339880413      1.43751635760711     -1.98090015806471
