20
Coordinates from ORCA-job NEB E -49.774439312240
  C          -0.14314906607094     -0.62061189305024     -0.68384851867141
  C           0.82513066391416      0.41164112900847     -0.54414193830214
  C           0.08000283861774     -2.09233416136477     -0.81938106619454
  H          -0.81577966360507     -0.31808757157927     -1.48861673435566
  C           2.13707175879048      0.35301029882127      0.20813640196231
  C          -1.50831782796034     -0.14174347066839      0.69158523177455
  C          -1.23051442494040      1.19253199920309      1.03734327579229
  C          -1.11881146590479      2.13516398273551      0.02669863078572
  O           0.41592107258656      1.57905327394799     -0.80446158674142
  I          -1.64367824465887     -1.51348147593579      2.30403993727070
  H          -2.32636647253305     -0.32164791857609      0.00525899825192
  H          -0.74045531690434      1.38941184092990      1.98194025438811
  H          -0.82437063249547      3.14355893069281      0.27455151679230
  H          -1.73499546903192      2.04743270803820     -0.85754196717613
  Br         -1.65995327431827     -2.99138348535274     -1.01036710169418
  Br          1.00218529018208     -2.39267442531100     -2.57075232778613
  Br          1.07258334901322     -3.03674244317960      0.54335823377695
  Br          3.42773711056441     -0.87544904817335     -0.56562615982644
  Br          2.93846541421768      2.12547837319715      0.16055545600776
  Br          1.84729436053713     -0.07312664338317      2.11126946394544
