19
Coordinates from ORCA-job NEB E -41.050451657800
  C           0.40669147216501      0.18781174152491     -1.11093734702307
  C          -0.84603180215322      0.44366587709404     -0.47651378785123
  N           0.50394779033418     -0.91251375698341     -1.92792507987983
  H           0.97352837589034      1.04279282384982     -1.46773654722759
  C          -1.23040428228942      1.88414292603075     -0.17700570905387
  C           1.35756714565385     -0.23438451566515      0.58315857736439
  C           0.61654328390323     -1.29148985783357      1.12406387173353
  C          -0.65439381769794     -1.03716815078897      1.62009243076825
  O          -1.48625514963653     -0.49808235608795      0.06518408494688
  Br          3.12501317337958     -0.62789434454218     -0.04226873532116
  H           1.33486652390187      0.73782135795875      1.05580870275475
  H           0.87258454485987     -2.30053826314281      0.82969751694113
  H          -0.84631903720412     -0.11570882677495      2.14948991848873
  H          -1.27630048594477     -1.86789204150277      1.91228507293108
  H          -0.08437707471735     -1.68708694807812     -1.65191357440920
  H           1.43820970373751     -1.18243983646690     -2.20111376574917
  Cl          0.12496343179596      2.88286192081941      0.42071869401079
  Cl         -1.78917589458034      2.62333558549327     -1.70919088413456
  Cl         -2.54065790139770      1.95276666509585      1.00410656071014
