19
Coordinates from ORCA-job NEB_reactant E -41.079786759510
  C           1.50758601031483      0.05989180624156     -0.15620812002443
  C           1.61017110059224      0.62751689671516      1.05969852356256
  N           1.24844404209788     -1.26481883653611     -0.35470606929386
  H           1.68754958070893      0.65223019920115     -1.03990960558032
  C           1.96203205508055      2.07477640056930      1.21105376516348
  C           3.57399232358479      0.16773259806886      4.71413828240260
  C           3.49079899513465      0.03903739294636      3.40237673378447
  C           2.46509256948225     -0.83391483200704      2.74338059934774
  O           1.36223159654517     -0.09495477227724      2.20974844585531
  Br          4.84736818050875      1.28081977912952      5.54986972195498
  H           2.93743068625647     -0.35071587777833      5.41377795731662
  H           4.14789748688236      0.59313461077713      2.74768401682033
  H           2.00832052933323     -1.50649170136946      3.47367503382286
  H           2.94021342844358     -1.41841248325227      1.94493830629203
  H           0.86215741742824     -1.75186540090608      0.44053608006618
  H           0.86886362518029     -1.52982482192698     -1.24771425143237
  Cl          3.68641046238292      2.37786739486423      0.76047266223846
  Cl          0.98008659185616      3.09037516816816      0.11765304281849
  Cl          1.71345331818669      2.63791647937211      2.86293487488486
