22
Coordinates from ORCA-job NEB_product E -52.461954922900
  C           2.71112792613169      1.18932435304658     -0.61028451492806
  C           1.39204709343999      0.77189740556669     -1.20474333793150
  C           2.64003525076163      1.05783801236722      0.91788311536785
  H           3.52921279542789      0.57410563572268     -1.00635728942615
  C           1.50918153847003      0.16210525767905     -2.63684358229607
  C           2.99973202851674      2.65486568413603     -1.03262472951659
  C           2.15414701345290      3.66211389383617     -0.31737097806754
  C           1.07699583619487      4.20552046291658     -0.85207352337589
  O           0.32434324285851      0.87336693279310     -0.67889452855891
  N           4.46872404657476      2.93308578999235     -0.79795591970455
  H           2.87206949064745      2.75074810309439     -2.11749949754480
  H           2.48262262310076      3.92481368461902      0.67764058176631
  H           0.74509793897443      3.96331545387956     -1.84884940827767
  H           0.47931235131588      4.91614931841172     -0.31028690769673
  F           3.72620088763076      1.65746296969910      1.48873045362587
  H           2.65472826761243      0.00578373582468      1.21674168847339
  H           1.74620886204629      1.55120497370026      1.31140962623945
  F           0.32745345652722     -0.17902797861888     -3.13253872099188
  F           2.07586421662997      1.02606579706557     -3.49465543765734
  F           2.28238411698039     -0.93087889221156     -2.61552075609174
  O           5.23458332312781      2.05193022028971     -1.08176443227344
  O           4.74932769357758      4.02970918619001     -0.40604190113401
