22
Coordinates from ORCA-job NEB_reactant E -52.459506205700
  C           1.92046878326045      0.20942122792426     -0.11723625260645
  C           1.48501606749826      0.49603346587990     -1.34015939664199
  C           2.23436292808712      1.11112421626158      1.03601676670390
  H           2.07794407170763     -0.83375168732377      0.11642171556112
  C           1.21727542012518     -0.62556458861733     -2.33382069768107
  C           3.45592610500175      4.28989346928713     -0.80723296321700
  C           2.91377139916913      3.23229142848837     -1.39851335158360
  C           1.45373496765192      2.91360507840604     -1.40719264933953
  O           1.16233398102758      1.65646961476149     -1.97223236279550
  N           4.87257566877168      4.53305757426930     -0.87961553184254
  H           2.91815180129682      5.04175556759162     -0.24997527392582
  H           3.55862929627205      2.55252176589802     -1.94522160625726
  H           0.94096388888117      3.61941383523762     -2.07221233680598
  H           1.01642473411167      3.01492603722480     -0.40714748519935
  F           2.89584912246132      0.39449784351006      1.99545117708075
  H           1.32240988208239      1.48969991942722      1.51694884727431
  H           2.89224906857718      1.94492603644486      0.76547921502818
  F          -0.06136808208307     -0.63550455986833     -2.72926684282315
  F           1.96405840596724     -0.48674971588406     -3.43562215035783
  F           1.47765129447135     -1.83848421276610     -1.83923620279367
  O           5.56238355945665      3.71997134546077     -1.45027864738658
  O           5.26838763620452      5.54744633838656     -0.35245397039096
