28
Coordinates from ORCA-job TS E -33.783885798580
  C          -1.81351794086519      0.46243421504122     -1.92855561870379
  C          -0.72534944293406     -1.79361379448551     -0.58903345655097
  C          -2.04785657837723     -1.68885877822442     -0.87475558387335
  C          -2.59008517502022     -0.59629211243079     -1.58192901978079
  C          -1.15258148342257      1.06270834933813      0.15296071376634
  C          -0.35624709477333      0.09992066118610      0.69074098130341
  H          -2.74930178691450     -2.36471332176077     -0.40523757413665
  H          -3.66601745352085     -0.51584759687516     -1.64173342362219
  I          -2.66943295907921      2.17655144447861     -2.82335130488694
  H          -0.38043867888842     -2.59567286152651      0.04137845983271
  H          -0.76634082295418      0.38418708512956     -2.14837837708073
  H           0.01713521040348     -1.33642451724603     -1.21344061340811
  H          -2.18320163968225      1.14120621637538      0.45280067187137
  H          -0.77265153622462     -0.54578565823768      1.45012902093125
  H          -0.72951490920173      1.94198890000373     -0.30028188646942
  C           1.15606147331494      0.23764788194653      0.74792763070182
  C           1.43415134127593      1.27742539419051      1.85050358776044
  C           1.83259578048551     -1.07351665535461      1.15899033417784
  C           1.77896022746378      0.73618236427745     -0.55856631683224
  H           1.01372998364891      0.94795638277942      2.79803997054799
  H           0.98985284947139      2.23628012083717      1.59584348169785
  H           2.50569251227527      1.41496877510918      1.97870972960785
  H           1.34847594741601     -1.49778894166809      2.03586240714340
  H           2.87661486112465     -0.88977870190399      1.40469308856476
  H           1.80354512558161     -1.80566142747773      0.35739272677212
  H           1.35739819681500      1.69055796848697     -0.86202164918441
  H           1.63865889376757      0.02066785948741     -1.36606139176548
  H           2.84966509881430      0.87327074852390     -0.42262658838409
