31
Coordinates from ORCA-job TS E -38.444934629020
  C           0.55823487939011     -0.36697064636782     -0.34347377647959
  C           2.16219486310767     -2.17852487234032      1.23648993855814
  C           0.98974461760047     -2.54721108295268      0.64361031325201
  C           0.20064319472027     -1.68323973100646     -0.12694706813274
  C           0.45551124716672      0.20585018866823      1.86242707748691
  C           1.27528406995811     -0.60467953168822      2.60556114513471
  H           0.54812176169826     -3.49658940744591      0.91847940528419
  H          -0.77513740588640     -2.03739993089958     -0.42421304803444
  N          -0.17495359269283      0.56269105021702     -1.01127765651248
  H           2.67068664060878     -2.86285444389816      1.89625903899564
  H           1.60614237572498     -0.11429370118220     -0.27814885002559
  H           2.78534060254938     -1.40439241372423      0.82500653775024
  H          -0.60882415008848      0.05141009801121      1.87817240096837
  H           0.86551474172203     -1.40421015953534      3.20553589624326
  H           0.80299733693852      1.17615062694532      1.55194187314719
  C           2.56779237985108     -0.17375981458633      2.95779394944375
  C          -1.62141682843654      0.47333065903280     -1.11666637404277
  C          -2.32261063011870      1.72483137727074     -0.58331141337851
  C          -2.03670133127929      0.18489220001839     -2.56199204707153
  C           0.44917357641053      1.81320701835624     -1.36629368989132
  H          -1.93397447221485     -0.36881546142643     -0.49303436900968
  H          -2.14772203190927      2.58455942437053     -1.22433824703696
  H          -1.97634152532292      1.95817754021238      0.42084914998320
  H          -3.39397898278986      1.54567369288556     -0.54207849840086
  H          -1.77931626401126      1.01693124776754     -3.21277851020551
  H          -3.11019723996001      0.02574868255177     -2.61855075929589
  H          -1.53076562024096     -0.70636164309554     -2.92468518573241
  H           1.50860589822328      1.65270496560572     -1.55923647650477
  H           0.35264350971929      2.56747009140752     -0.57662994245802
  H          -0.00362491581820      2.20525633095063     -2.27599141253742
  N           3.61693329538008      0.20041764587762      3.23752059850289
