24
Coordinates from ORCA-job P E -27.677987822230
  C          -1.80905289100323      0.28545261754371     -2.59187129949563
  C          -0.39515248877182     -1.68950168850735     -1.36238849118876
  C          -1.88510997345036     -1.81627863599517     -1.41812382395950
  C          -2.57653466972269     -0.85405281252332     -2.00621353454083
  C          -0.76276750420864      0.80790408951139     -1.59375755247489
  C          -0.02243491057970     -0.30111698415087     -0.81269412149944
  H          -2.35036714179917     -2.67775843442984     -0.96454759856304
  H          -3.65279166888004     -0.86451506762551     -2.07974619580858
  H          -2.46813127105857      1.10147821485819     -2.88952764946842
  H           0.02441549329084     -2.47333636139263     -0.73391673643611
  H          -1.28974766485953     -0.06805121684016     -3.48828100979367
  H           0.02249141913562     -1.78360841951010     -2.36903845130269
  H          -1.26174478379414      1.47460712098711     -0.88861245938879
  H          -0.35841770161143     -0.28205963158654      0.24296402588252
  H          -0.02407404126484      1.38817347753509     -2.14744816901331
  N           1.41717890809792     -0.03168517629535     -0.87680743713961
  C           2.26184211913236     -1.15230523237935     -0.51362358113588
  C           1.75688525122681      1.11437693626419     -0.05495561519798
  H           2.04635442025934     -1.54663489122838      0.49238315211228
  H           3.29859171777464     -0.81811216639371     -0.53223573299000
  H           2.15700635696362     -1.95324540486074     -1.24115404748523
  H           1.60005089939701      0.92048385613849      1.01902728987302
  H           1.15352867353246      1.97294756782698     -0.33808265645805
  H           2.80532145219355      1.36487824305387     -0.21224830452740
