20
Coordinates from ORCA-job NEB E -45.656618890360
  C           0.76454656954242     -0.44290057752832     -0.89877397609045
  C          -0.39531971511060     -1.21403912850185     -0.83085463082756
  H           1.66348474440851     -0.85758994790113     -0.46845365400081
  H           0.92627455475264      0.11853852132501     -1.80882696170540
  C          -1.55375367920718     -0.89769226213749     -1.76092458237783
  C           0.40947283677975      0.83346204310524      0.48722042592345
  C           0.12724608488591      0.01533910018403      1.58294420307342
  C          -0.99493119719153     -0.86977146985398      1.48230841279944
  O          -0.68511518134032     -1.85135376834712      0.27729445285947
  C           1.61103263423683      1.73970019013163      0.56065525949561
  H          -0.42506773313459      1.33427739965269      0.00515995630849
  H           0.93648357980400     -0.26202993189842      2.24189293517123
  H          -1.93068739284262     -0.40553067729737      1.17726922150861
  H          -1.12961706133314     -1.55250040436770      2.31328578528641
  F          -2.13533458418495      0.29842472983761     -1.42711648843323
  F          -1.13383453556667     -0.75372621230431     -3.03640665654234
  H          -2.33963590535935     -1.66578406095053     -1.72953928105343
  Cl          1.28298409014353      3.01547519915314      1.77348172671007
  Cl          3.08015072074078      0.87736151395964      1.05399071786106
  Cl          1.92162116997656      2.54033974373921     -0.99460686596622
