20
Coordinates from ORCA-job NEB_product E -45.696839243660
  C           2.32577554696400      2.53373958004543      0.46099691164089
  C           0.90409483142888      2.76744558689666      0.03717278088969
  H           2.47874277716372      1.44971696575720      0.41809658650718
  H           3.01397126366567      2.98443762059351     -0.25664911856515
  C           0.71120425733740      2.71936090352066     -1.49979486688053
  C           2.60080999027378      3.02865718072219      1.88753133488366
  C           3.64548966568218      2.18690351207585      2.56712015504004
  C           3.44664883920982      1.56851838307244      3.71465762625332
  O          -0.03482398685278      2.91931570544513      0.76465820490961
  C           3.03818049696694      4.49577550165572      1.86802365414849
  H           1.66528676063699      2.98058257572325      2.45683844610536
  H           4.59012164585816      2.11364219376147      2.04805407237008
  H           2.51075635047450      1.63759184167530      4.24392317554262
  H           4.21250963013637      0.96722300396133      4.17228784880539
  F           1.51251581202816      3.62448986912754     -2.10378438437201
  F           1.09192888764334      1.50187942462392     -1.95932897327066
  H          -0.32937266231145      2.90369339753513     -1.80212621574503
  Cl          1.82694612164238      5.50903075269719      1.03961599932021
  Cl          3.22791210678123      5.08941445057219      3.53056217862000
  Cl          4.59000166527070      4.70128155053792      1.02264458379684
