20
Coordinates from ORCA-job NEB_reactant E -45.685226609110
  C           2.76479384174572      1.29971343532320     -0.00376797600568
  C           1.55605495654254      1.80659134343027      0.20206524405608
  H           3.48054365624149      1.16041027821981      0.78427601437792
  H           3.07576450349296      1.01680116056928     -0.99076445863550
  C           0.59127260966392      2.03747659066275     -0.94331356022885
  C           3.03484413822058      4.09348668872393      1.90508143123628
  C           2.87303801716428      3.04109462403723      2.69179483401324
  C           1.74178267294751      2.06644284832893      2.55434372635810
  O           0.99377654492530      2.20249019498288      1.37076120651555
  C           4.14758865520324      5.07125747439313      1.98701144032438
  H           2.33682642509133      4.30549630531548      1.10641000383706
  H           3.55761587885336      2.83215570110641      3.50065634593584
  H           1.02179667796867      2.23784529101646      3.36254191665938
  H           2.12420695349638      1.04085007810771      2.65049233850476
  F          -0.60499656642225      1.45338559584430     -0.70737795278544
  F           0.34741698736719      3.36314060378260     -1.09429321774316
  H           0.97644883987411      1.65413619461864     -1.89978978832293
  Cl          3.48567707340049      6.72155937338494      2.16091603247452
  Cl          5.26274639061860      4.77663246539285      3.32752488262370
  Cl          5.08480174360458      5.00523375275923      0.46063153680478
