17
Coordinates from ORCA-job NEB E -33.026593571040
  C           1.04205327485447      0.03735610380812      0.49314179905623
  C           0.17295214717747     -0.75319939955150      1.24503054737326
  C           0.89738002697061      1.53554884722953      0.64980200498437
  H           2.07827910595285     -0.28328323945929      0.43673074720859
  Br          0.70170776890637     -2.61331940028336      1.50931276825646
  C           0.27193518146957     -0.36418090707165     -1.26120787782901
  C          -1.06575825397260     -0.02760704483040     -1.09970679788970
  C          -1.80735621971416     -0.77027347652127     -0.12896461039676
  O          -1.08091765597283     -0.51891627549165      1.28724003096510
  I           1.41071971625437      0.65650981101799     -2.73693610379405
  H           0.54970627904956     -1.41127298006005     -1.26282109623799
  H          -1.40319870773656      0.96377596521801     -1.36172394464781
  H          -1.73717589195888     -1.85486583453484     -0.19973526426371
  H          -2.82018923207920     -0.43376653536140      0.05807086392576
  F           1.63257924096920      1.93408299334533      1.73654500896898
  H          -0.14101722714105      1.82147591845956      0.84432146519788
  H           1.29830044697081      2.08193545408687     -0.20909954087758
