17
Coordinates from ORCA-job NEB_reactant E -33.051583525040
  C           1.68841771147915      0.05719315404551     -0.01978857511009
  C           0.79472993132462     -0.65571870056729     -0.69429977258706
  C           2.30571463973328      1.30361320828032     -0.56671359699320
  H           2.00861103923588     -0.25176012825379      0.96144592077996
  Br          0.07461052740033     -2.24975117174613      0.11172120259511
  C           0.04024514844063     -0.90658365984771     -5.25889866440274
  C          -0.46248740357966     -0.58550889007757     -4.08302119288807
  C          -0.07652859652913     -1.28132041192684     -2.81709096839816
  O           0.27793170864474     -0.27963575581037     -1.86810255959891
  I          -0.52512579634606      0.04200135623118     -7.04206720551801
  H           0.76211188653892     -1.69317989601585     -5.40274522169499
  H          -1.17988331822515      0.21294562326500     -3.96553950255376
  H           0.76307181594952     -1.96786926764863     -2.98195098723627
  H          -0.93469980105219     -1.85623855366536     -2.43783917221228
  F           3.66276062215484      1.29178679621806     -0.35208888100913
  H           1.92029997921482      2.19388774034023     -0.05407159035939
  H           2.14371990561547      1.39333855717924     -1.64504923281298
