17
Coordinates from ORCA-job NEB_product E -33.073848424080
  C           1.86716773828953     -0.31893842210884     -1.84773614111279
  C           1.20715529970975     -1.05723766455978     -0.71162771323312
  C           1.84587173256680      1.18392397316478     -1.55989061580452
  H           2.91199613424484     -0.64177920744970     -1.92290477489696
  Br          1.73285371884459     -2.94787199539983     -0.67055902546558
  C           1.11644298702902     -0.72999727198379     -3.12221085148377
  C          -0.31326502975252     -0.31895336338205     -3.12329992474182
  C          -1.30644994731759     -1.18291822955988     -3.23541197297450
  O           0.42218618848143     -0.66235313588150      0.07306630082285
  I           2.11489209760746      0.09486022070052     -4.88589405707316
  H           1.20252301235792     -1.81030656401980     -3.25458297838872
  H          -0.50561833212673      0.74125238434384     -3.03759364369708
  H          -1.13222066342534     -2.24232543882977     -3.33370933460499
  H          -2.33373050130108     -0.86455551947306     -3.22773325083406
  F           2.78922625217957      1.46749322588531     -0.61111835718158
  H           0.88112583595390      1.50883374535962     -1.15802364503830
  H           2.11074347665846      1.76147326319390     -2.45147001429192
