18
Coordinates from ORCA-job NEB_reactant E -30.249622874360
  C           1.92101782169883      0.38932067500023     -0.05778907795639
  C           2.32182659974251     -0.10920353910812     -1.22484085175289
  C           0.49917996243007      0.71778162092699      0.26625636291716
  H           2.65933599993239      0.58786188941265      0.70497547910211
  O           3.62517948542279     -0.41175765806691     -1.51659883798077
  C           3.26624495884032     -3.16167417513298     -3.06009317628665
  C           2.10538022082508     -2.54788239845195     -2.94871375309446
  C           1.90192197836937     -1.11388431487405     -3.33265450181276
  O           1.44748850865871     -0.33425020956549     -2.23852181584147
  F           3.42828085278844     -4.44486936942142     -2.70179844545399
  H           4.17710938795316     -2.73108128922205     -3.44972596433648
  H           1.25338055187183     -3.05912716815690     -2.52517874755789
  H           1.09599668110621     -1.03214560770742     -4.06794297382002
  H           2.82317716280192     -0.69346374246134     -3.74925506526977
  H           0.38361728502145      1.78724820484489      0.44315412987686
  H           0.18455373906517      0.19508886106354      1.16925030242626
  H          -0.14557260644840      0.42735841127564     -0.55690370641364
  H           4.17378140992016     -0.20312019035530     -0.75371935674520
