19
Coordinates from ORCA-job NEB_reactant E -47.146705886600
  C           1.72095619556744     -0.09720321018976      0.03947525718415
  C           1.58318430802142     -1.39006039579128     -0.31833739481739
  N           1.71660346910237      1.02753142159695     -0.82989817420893
  H           1.84011416927673      0.17673798338561      1.07747939191058
  C           1.47415281992396     -2.44758241524515      0.75780346494885
  C           3.75805381264851     -2.75475722089178     -4.01145466321158
  C           2.52737072507052     -2.48652870551226     -3.60455300007105
  C           2.21562253942949     -1.37447464794493     -2.65515599533513
  O           1.62745383009036     -1.97804517649997     -1.49989215469406
  Cl          4.11868287035934     -4.01841802884827     -5.10484836128544
  H           4.62181615547951     -2.18285795303217     -3.70430927359316
  H           1.68601669646859     -3.08251696635086     -3.92283884267630
  H           1.50326356168415     -0.66647758267980     -3.09954001700806
  H           3.12361058769244     -0.83320697158670     -2.36521548545394
  O           1.06339117884098      0.95560842084137     -1.85463483090710
  O           2.33368304188596      2.00213805261419     -0.46420667204793
  Br          0.59447005580091     -4.02115695260967      0.05884514000736
  Br          3.31233796986395     -2.94362153273158      1.27192877244480
  Br          0.52071601279336     -1.86130811852393      2.33455283881430
