19
Coordinates from ORCA-job NEB_product E -47.146322356560
  C           2.58079047598143     -1.24940956031274     -0.88671577654275
  C           1.46553745597529     -2.15733608622153     -0.40549916712873
  N           2.04996903873326      0.16166313834713     -0.97803772532375
  H           3.42731287235971     -1.22458589792330     -0.19396801017102
  C           1.66650520792604     -2.75414114302503      0.98321984034129
  C           3.05446934533078     -1.68007415549684     -2.29068430344580
  C           2.05023042889477     -1.46846324354621     -3.37138193919148
  C           2.32040517361241     -0.77740978449407     -4.46478163538841
  O           0.44899398058592     -2.34868294727956     -0.99859282467512
  Cl          3.43685223075331     -3.44959704043207     -2.17957085004145
  H           3.99782610844635     -1.17801834911012     -2.52238954692360
  H           1.08793236375478     -1.93441476396696     -3.22389602961833
  H           1.58558263965374     -0.64952531850447     -5.23877580275129
  H           3.27858905854445     -0.31061385458212     -4.62708727990518
  O           1.06827477657432      0.33457748219105     -1.63999151611349
  O           2.68365857326044      0.98891245423540     -0.38231129093006
  Br          0.28304925140655     -4.04574170843833      1.34019315050428
  Br          3.40174353904756     -3.55968783568240      1.26245779563164
  Br          1.46337747915887     -1.20295138575782      2.18771291167326
