15
Coordinates from ORCA-job NEB_reactant E -26.155251721600
  C           2.03805060751450      0.12262728503330      0.10494354876460
  C           1.30460781470603      1.09868791545496      0.61769523108276
  I           2.38066985611161     -1.63809520091562      1.19291368860163
  H           2.49399749846364      0.16650671184869     -0.86389600975806
  H           1.12571840113402      2.00938174002134      0.05233525924961
  C          -0.13050099442326      2.64704210566801      4.68362993067792
  C          -0.46042269176894      1.84358412491219      3.68178520580615
  C          -0.06370131332065      2.08958654970177      2.26341788181014
  O           0.76164230016369      1.01245438385521      1.84492995732334
  O          -0.45212450653518      2.47072126077777      5.97959115871429
  H           0.42441340597647      3.56344423362475      4.53859396785115
  H          -1.00550397310008      0.92733595784976      3.86079403676081
  H           0.48018975018681      3.03937676044449      2.17633090122052
  H          -0.95461734698436      2.13238834961775      1.61759854291812
  H          -0.92341880812431      1.63495782210561      6.09423669897702
