20
Coordinates from ORCA-job NEB E -29.262925076560
  C           0.49594165503914      0.37620191759580     -0.35480970177967
  C          -0.53506898104621      1.05899801107461      0.46977698775424
  C          -0.08553998630553     -0.13794199981098     -1.68373057416956
  H           1.32223440893004      1.04444792878684     -0.62025375550459
  C          -1.40065964301278      2.18940014080565      0.06753587918091
  C           1.30333213626794     -2.06150084065955      0.01208753705129
  C           1.01341316034466     -0.75311200488243      0.61695045465161
  C          -0.10364946649708     -0.81321221611115      1.67316695074073
  O          -0.82910691568305      0.40489609533679      1.61478346912595
  H           2.23329490128904     -2.21095997563851     -0.49750390095138
  H           0.51086776430832     -2.76114657515619     -0.16990203396096
  H           1.92225182823902     -0.35701941274259      1.08411141604138
  H           0.28318888480887     -0.93200011645139      2.68659162375486
  H          -0.79895540564743     -1.63633467916543      1.46623536726040
  F           0.92063341940511     -0.43740403857551     -2.56472034347269
  H          -0.69468302518353      0.63539746798976     -2.16278385430441
  H          -0.66964444913646     -1.05091981950179     -1.54254238470765
  H          -1.84216175454386      2.63406727820135      0.95668685895609
  H          -2.22154243094300      1.86715585438456     -0.58283679321355
  H          -0.82414610063320      2.94098698452019     -0.46884320245298
