20
Coordinates from ORCA-job NEB_product E -29.357081821790
  C           2.46697624374579     -0.73832024845018      0.49970759491061
  C           1.09249548446507     -0.18274313607727      0.84447834082327
  C           2.53115525233607     -1.03705920397515     -0.99733080979538
  H           3.24621707165714     -0.01447379928380      0.75477981589508
  C           1.06186989966383      0.74984514327328      2.02190525208089
  C           2.70250013985418     -2.03596790603703      1.30557336923821
  C           3.00394615257862     -1.77924308852822      2.74554485659990
  C           2.31349434870126     -2.27822469834852      3.75460219939965
  O           0.10766114055705     -0.49546663929947      0.22432571038571
  H           3.56080902523271     -2.54472121842339      0.85671897788757
  H           1.82875068111347     -2.68349407953429      1.20866347811356
  H           3.86597504195112     -1.15032977165247      2.93202223144305
  H           2.57815705078755     -2.08390146702429      4.78008058936898
  H           1.45489560402980     -2.90961814176643      3.59468867107653
  F           3.79519420331951     -1.44547462053486     -1.34670524070160
  H           2.31010658487602     -0.14366166560702     -1.58946948336429
  H           1.84203704200328     -1.84125679015626     -1.26886070042244
  H           1.48802758662536      0.24907138027996      2.88966179904800
  H           0.04034978972211      1.05360662176517      2.23372464296778
  H           1.66598165678007      1.62923332938024      1.80828870504494
