22
Coordinates from ORCA-job NEB E -40.639665941800
  C           0.41890930675249      0.87322857196941      0.41570227315381
  C          -0.85602219988206      0.56114229384141      0.97728177114230
  N           0.51534311835933      1.87435631241225     -0.57345252006339
  H           1.25740513882248      0.89239171473778      1.10549123838228
  C          -0.95680019083859     -0.09683041997521      2.32852192378031
  C           0.71798827931021     -0.68409796111256     -0.58839525759221
  C          -0.41328895662014     -0.71249832449093     -1.42059660429436
  C          -1.68999078802361     -0.89296335696300     -0.83916377847610
  O          -1.85244581276549      0.43085717395952      0.16185058713948
  C           2.07175217135214     -0.47879040043783     -1.21823340685521
  H           0.73253177988719     -1.40850217236547      0.21950969039594
  H          -0.35074558003340     -0.20927460635048     -2.37535441304954
  H          -1.79740445193848     -1.68819764631155     -0.10933037565112
  H          -2.55189716150567     -0.79033901643008     -1.48548944850510
  H          -0.38876956902585      2.06402440385949     -0.98950758135877
  H           0.94642352797274      2.72242806773906     -0.23563831781541
  Cl         -0.52910208719284     -1.86697545212547      2.35022507620117
  Cl          0.12095497050781      0.69201590285144      3.49324058412546
  Cl         -2.62387278479889      0.02941188975582      2.91588124223667
  H           2.82718032213025     -0.28678099060476     -0.46144120996788
  H           2.04743968204243      0.35592895754640     -1.91239771545894
  H           2.35441128548796     -1.38053494150524     -1.75870375746939
