22
Coordinates from ORCA-job NEB_reactant E -40.671051338880
  C           1.44526251236742      0.32494681501416      0.12234902066353
  C           1.62563967331990     -1.00749623267971      0.16551577459680
  N           0.70133451361893      0.95893902723487     -0.83342584403482
  H           1.94847766249650      0.95766390023683      0.83718803641051
  C           2.49710087058872     -1.62690968630231      1.21458908610745
  C           3.06319654450774     -4.05722892754600     -2.20541504291884
  C           2.91717316204800     -2.77800648505773     -1.90116404901961
  C           1.61674015648727     -2.04133690971041     -1.98765316449799
  O           0.98362234194723     -1.85389977251673     -0.70999509243254
  C           4.34359293838749     -4.81024699503536     -2.09279988303071
  H           2.21399882500360     -4.62594646130640     -2.56333405289034
  H           3.75757645707927     -2.20456204436714     -1.53417746957106
  H           0.88346035596858     -2.61653337453298     -2.55740020356380
  H           1.77072087410856     -1.06249899393512     -2.46147838820851
  H           0.06076690701909      0.36251795678551     -1.33662361537176
  H           0.34328663692059      1.86991262053516     -0.60086987348825
  Cl          4.22719070390381     -1.17301937078509      0.98427597736615
  Cl          2.04884099807458     -1.03605952061038      2.84370783583264
  Cl          2.37917128617702     -3.38276484074514      1.21472355251842
  H           4.22201919818530     -5.64688428367026     -1.40542087605101
  H           5.14248149898275     -4.16963532346026     -1.72862685727920
  H           4.62844588280765     -5.21865109754549     -3.06206487113708
