22
Coordinates from ORCA-job NEB_product E -40.669262137890
  C           2.89239158720645     -1.35151228383673     -0.52406632870794
  C           1.56449513710867     -1.31729101188191      0.20616017123708
  N           3.11500138561045     -0.13324551294612     -1.27242998157159
  H           3.71475349969275     -1.48228051536082      0.18490138792522
  C           1.55640090146328     -1.88413073361119      1.64047605696111
  C           2.87824600259821     -2.57782783076913     -1.48880063686911
  C           1.78642168636658     -2.43867642455827     -2.50658573258863
  C           0.63639158806422     -3.08313320604316     -2.44749561025688
  O           0.56973777837898     -0.82344841419154     -0.24384282302134
  C           4.24317351634926     -2.68551342654201     -2.16408787385236
  H           2.69497760523739     -3.47233274150401     -0.88717974511011
  H           1.99563205558259     -1.76122447596145     -3.32260910384724
  H           0.40787653184595     -3.76679153188202     -1.64552539591185
  H          -0.12722432203870     -2.95694489371185     -3.19515013268373
  H           2.30686417395070      0.06222276961719     -1.85491145559947
  H           3.24392631805595      0.65215752422541     -0.64423895522412
  Cl          2.47289442938088     -3.38425244184545      1.80235034296684
  Cl          2.34662005504332     -0.61160377729081      2.61684775736602
  Cl         -0.09407839193688     -2.13435969678043      2.22075222458611
  H           5.01593466637368     -2.89268621816315     -1.42852078072272
  H           4.47972328300749     -1.75154844998457     -2.66537652508336
  H           4.23054051265877     -3.49127670697798     -2.89356685999192
