14
Coordinates from ORCA-job NEB E -26.107479229180
  C           0.34828549387515     -0.51206312567005     -1.36707161344741
  C          -0.75155847956379     -1.02989226421527     -0.70598712380269
  I           2.18489472580136     -1.53989996541930     -1.11803368399659
  H           0.23666286804121     -0.15566573542181     -2.38092907532731
  Cl         -2.31505673851154     -0.47293969552437     -1.34803456909730
  C           0.53509179944976      1.14139409761823     -0.23549049386776
  C           0.56621029826551      0.61562565558805      1.04067547800606
  C          -0.58840872716153     -0.07815443257169      1.51297708579053
  O          -0.72328250630578     -1.36304206339680      0.52130486513242
  H           1.43369015330063      1.58686550824085     -0.63795222345717
  H          -0.38314912734137      1.58477434720413     -0.59773514241571
  H           1.52010798004402      0.36776255351512      1.48419281627518
  H          -1.54740885821304      0.40817672842414      1.34854520139659
  H          -0.51607888168058     -0.55294160837123      2.48353847881115
