14
Coordinates from ORCA-job NEB_reactant E -26.126474217490
  C           1.80440175996227      0.17488696111454      0.07375006960538
  C           1.56016745647034      1.41515750343076     -0.33158597575715
  I           2.46069668743760     -0.50697023540314      1.95365204495338
  H           1.63445799527244     -0.64008712944691     -0.60462489027484
  Cl          0.96222266709033      1.58005895259370     -1.96169563112462
  C           2.19499360361548      4.99196616285445      2.71941272496840
  C           2.45451936518336      4.34751010370769      1.59871078193706
  C           2.31730840687839      2.86493953784794      1.43724784777782
  O           1.65478697596076      2.63276490382995      0.19613143719521
  H           2.32603392747808      6.05647899159206      2.80196598576894
  H           1.85374695548660      4.47975424754909      3.60384963494860
  H           2.79108150124792      4.86625022558842      0.71280503093270
  H           1.74146293084784      2.44030554015279      2.26572782314439
  H           3.31371976706858      2.40368423458865      1.41375311592474
