14
Coordinates from ORCA-job NEB_product E -26.157075736380
  C           1.75771493281783      2.11305851290699      0.14898078682877
  C           0.39197535397348      2.11530779895756     -0.45638715094843
  I           1.95174141663740      0.10831352554543      0.96977506427753
  H           2.53374513949977      2.18063925481415     -0.61214695052532
  Cl          0.37670141244159      1.39775159771049     -2.07401325508605
  C           1.91421839397621      3.17355830257816      1.23111029998820
  C           3.28089558688631      3.13570622347790      1.84130782076737
  C           3.51263558517813      2.86081667886820      3.11055800958108
  O          -0.60837971324047      2.51900095480412      0.03186329136744
  H           1.74748890165454      4.14680944603178      0.75639274034993
  H           1.14804914932640      3.03602875219438      1.99640821499541
  H           4.09832983826170      3.33435870195159      1.16020718732523
  H           2.71191331140322      2.65634613734983      3.80199064613168
  H           4.51017069118388      2.83070411280941      3.51255329494716
