17
Coordinates from ORCA-job NEB_product E -33.997235087050
  C           1.68447155073316     -0.37083248941588     -1.56134085930534
  C           0.70509826091882     -0.72321002599283     -0.48492415652298
  C           1.86730943624761      1.15224499389617     -1.62520984451217
  H           2.66314919331456     -0.78736679263935     -1.29342955507181
  Br          0.64492769055744     -2.65040314346059     -0.17016164333474
  C           1.24994579474936     -0.97863708258256     -2.91814934126193
  C          -0.22493690977121     -0.84548103607145     -3.16550832273452
  C          -1.03460852248802     -1.87949914488954     -3.29209736711401
  O           0.02356022405861     -0.01166539105433      0.16349245648593
  H           1.80811766186930     -0.46237904484821     -3.70341783989303
  H           1.52752888163705     -2.03397652501469     -2.93552097248491
  H          -0.60535084702453      0.16325820531657     -3.23759025789904
  H          -0.67931775768488     -2.89520499250305     -3.22385724596670
  H          -2.08777487764891     -1.75346291244962     -3.47278251512615
  F           2.96766151638618      1.43646095811946     -2.36246781657397
  F           0.83835204687645      1.77590556492917     -2.22980346395506
  H           1.99816665726900      1.60554885866072     -0.63003125472956
