17
Coordinates from ORCA-job NEB_reactant E -33.972170664750
  C           1.73266613728349      0.01403248946378      0.08747776343998
  C           1.11998193238017     -0.86691575784711     -0.71072103737074
  C           2.10435939492595      1.37700696404505     -0.40387364570397
  H           1.98466929510440     -0.24101296090268      1.09975922683808
  Br          0.67440145540456     -2.57932150581023      0.02397537170348
  C          -0.13279043841666     -1.51694709014185     -5.22506916621226
  C          -0.20229145468056     -0.87390655900209     -4.07628563773496
  C           0.03521652574674     -1.51623711329383     -2.74490467072540
  O           0.82369329269513     -0.62464784416749     -1.96834671136736
  H          -0.33049891179425     -1.02329255212150     -6.15997233660474
  H           0.11251085483430     -2.56505032826781     -5.27825188862868
  H          -0.44061897577432      0.17841849343316     -4.02582398875346
  H           0.55182213530542     -2.47746824002585     -2.85928724390736
  H          -0.92674053473236     -1.69057232307683     -2.23954413621278
  F           3.01411024160346      1.32279143692548     -1.41383232322565
  F           1.03310083261203      2.03932597265024     -0.91631516138403
  H           2.53220821750250      2.00419691813957      0.39231558584986
