19
Coordinates from ORCA-job NEB_reactant E -30.527445482790
  C           1.44565975157809     -0.09665934141914     -0.03998107518096
  C           1.28221607486327     -1.20336033072327     -0.78995523291620
  O           1.35209401395473      1.19051411029266     -0.48989627176933
  H           1.67812292961382     -0.23768889611232      1.00743525585740
  C           1.41403841995886     -2.43601334615019     -0.09506172645648
  C           3.09199267746008     -0.00151375387293     -4.46767638559385
  C           2.53514179350434      0.08126535857856     -3.27142378662803
  C           1.10266200227724     -0.25545889829054     -2.98534674075116
  O           0.97599838649115     -1.36497554451339     -2.10460719609705
  C           4.51344588626458      0.33251898387354     -4.76734566399399
  H           2.49901215524514     -0.32050551955658     -5.31559729354945
  H           3.11847186528743      0.39371622903695     -2.41565766531180
  H           0.59591199184560     -0.58099275544655     -3.89720870480338
  H           0.58372920338854      0.61694482147693     -2.57294995633538
  H           1.60089606172118      1.80453325807748      0.20734726006419
  N           1.53019404029068     -3.42047520097765      0.48036527087030
  H           5.04203084491079      0.64153266223180     -3.86919264679938
  H           4.56356896187318      1.13645902844952     -5.50131263722565
  H           5.01841293947130     -0.53354086495487     -5.19403480337983
