19
Coordinates from ORCA-job NEB_product E -30.523449544950
  C           3.09067165689886     -0.82607276809596     -1.67829841248446
  C           1.84833736136603     -1.61690928135863     -1.29298048556457
  O           3.38228403448586      0.22264581054472     -0.79079352427998
  H           3.93522732052507     -1.52896171572035     -1.76307431378342
  C           0.93758203293106     -0.86573562203127     -0.44402462436721
  C           2.80087625503944     -0.23203295025216     -3.08386706192563
  C           1.59344327613940      0.65763594917016     -3.00661863829309
  C           0.46317941938746      0.42756734103675     -3.64664925942542
  O           1.61660963028200     -2.73699176968533     -1.66935509267336
  C           4.01796684385954      0.54903497289051     -3.57511958807288
  H           2.60079305666407     -1.07159464615394     -3.75789497203019
  H           1.70841205567463      1.52117309148878     -2.36690131990366
  H           0.33462541677207     -0.43286554249002     -4.28405015978752
  H          -0.38157004537119      1.08897626885590     -3.56244099346697
  H           3.59290661738537     -0.12584910643595      0.08174329611471
  N           0.24120627218847     -0.27453534752811      0.24512661009011
  H           4.87831786857870     -0.10772633858820     -3.68085119918711
  H           4.26015053034248      1.33645420817601     -2.86674540189614
  H           3.79738039685069      0.99738744617710     -4.54050485906322
