21
Coordinates from ORCA-job NEB E -39.864527769730
  C          -0.14981012633344     -0.92710426489644      0.63009237116934
  C          -1.28928289929343     -0.64257290255374     -0.12766036807257
  H          -0.27621170891574     -0.85652234123597      1.70009326465061
  H           0.50616222243357     -1.72552397681225      0.31589699953048
  O          -1.44923923146225     -1.00862501982107     -1.42388360150501
  C           0.77484509469616      0.76952700625794      0.35223461922441
  C          -0.15417799316779      1.72694448174390      0.76775548122924
  C          -1.39262045450069      1.76133122231503      0.05614266745482
  O          -2.07091946872239      0.31636911773273      0.25376814641944
  C           2.08115302820100      0.67353558476705      1.07591192519176
  H           0.92101788432619      0.67077011218504     -0.72270578385440
  H          -0.16178145818639      2.02740779331632      1.80595547605876
  H          -1.31992914390328      1.81644006976856     -1.02822749210681
  H          -2.14789124312835      2.42813387264399      0.45268172273199
  C          -0.65571229692088     -2.04912852404912     -1.95232384381345
  H          -1.08191427161517     -2.27872825060653     -2.92706384972124
  H          -0.69546735798754     -2.93900447610923     -1.31856018895608
  H           0.38565124568984     -1.73922706708659     -2.07857446954126
  Br          3.12659705537536      2.31332690567863      0.73897750244263
  Br          1.88624558544378      0.48112936834129      2.99989021782330
  Br          3.16328553797143     -0.81847871157953      0.42959920364406
