21
Coordinates from ORCA-job NEB_reactant E -39.893332637440
  C           0.99358353182116     -0.06913487957745     -0.56661284161732
  C           1.62350707563239      1.05897236065452     -0.87086493683392
  H           0.18336576326293     -0.04011844881712      0.13356201187092
  H           1.25340783744317     -1.01353950074496     -0.99764690342598
  O           2.66912227288561      1.21963224578934     -1.72855047145315
  C           4.36983812365458      3.77260168245789     -1.02668894073348
  C           3.38786218020411      3.32077167008020     -0.26330843040822
  C           1.94116987865502      3.39928205027699     -0.64056354291755
  O           1.23604562079185      2.22835708098439     -0.28706846747163
  C           5.81340747152899      3.67603521347659     -0.73649204161535
  H           4.15810111403445      4.23972699289169     -1.98121798099494
  H           3.57819089577517      2.83656533637937      0.68570351463486
  H           1.83311885134541      3.61342380503156     -1.71075442139873
  H           1.45178423395999      4.19145893037722     -0.06348768410658
  C           3.19978020769266      0.06585559315980     -2.33798317958377
  H           4.03764616524566      0.40967022186103     -2.94237639914756
  H           2.45772893082918     -0.41838059984434     -2.97819466031078
  H           3.55478696005680     -0.64647140031137     -1.58841427619666
  Br          6.64227164351164      5.46532383572534     -0.83185013694341
  Br          6.25492381913875      2.90994139741048      0.98744078921676
  Br          6.66635742253045      2.55302641273883     -2.12083100056351
