16
Coordinates from ORCA-job NEB E -36.805091942810
  C           0.43940510284295     -1.16111968697623      0.50752110222169
  C          -0.94987053174681     -0.84763786016484      0.15801511298555
  Cl          0.66148599453590     -0.93169070838847      2.25442524996850
  H           0.96549594381382     -2.06280483042110      0.22013051184804
  N          -1.37821838286032     -1.10750914067484     -1.14261365577546
  C           1.17289823423710      0.02119438720221     -0.32625841653897
  C           0.69851059009007      1.23773587266599      0.21090196544331
  C          -0.66862615689257      1.44975736281161      0.60388006753184
  O          -1.45325901411852      0.21628300614089      0.79389072272567
  Br          3.15331486446760     -0.07183993648872     -0.37068636283768
  H           0.94035232379282     -0.33273214392036     -1.36004204552164
  H           1.41513962698390      2.01265215660451      0.45062982834252
  H          -1.24687077076529      1.98885792993972     -0.15479951221959
  H          -0.77898701649795      2.02361925427235      1.53120348497209
  O          -2.50201007635175     -0.86753843581439     -1.51304553654339
  O          -0.46876073153092     -1.56722722678832     -1.86315251660250
