16
Coordinates from ORCA-job NEB_reactant E -36.849010012340
  C           1.87720269052953      0.09709771744316     -0.23566511177570
  C           1.46284904014785      0.70286785098919     -1.35510356941496
  Cl          2.52965445936282      0.82645522901758      1.16784793176226
  H           1.79493419541750     -0.97944604381419     -0.18260417426636
  N           0.91490109987622     -0.17330266915602     -2.40874171244775
  C           4.32950105449600      3.67089531051295     -2.10743547088826
  C           3.62377368353798      2.84234337206111     -1.35818108543619
  C           2.14839141424065      3.00312540709501     -1.14477902453605
  O           1.40314825652807      1.96805363564232     -1.77686861174077
  Br          6.18509191656755      3.47381490885758     -2.36838983302272
  H           3.91417813952851      4.52868099236132     -2.61280708965106
  H           4.09191943157120      1.99323334419202     -0.88127541352018
  H           1.78574630794379      3.91481370488449     -1.62459510731362
  H           1.92152272366916      3.03993124992164     -0.07436691465281
  O           0.62665094759638      0.35342631769685     -3.45012633265442
  O           0.79573463898677     -1.34829032770502     -2.14960848044140
