18
Coordinates from ORCA-job NEB E -38.663290451670
  C           0.94691135562435     -0.84551673009480     -0.19961016339177
  C          -0.40356005824979     -1.17006950481486      0.00162696034043
  H           1.62536494258996     -1.07654993114419      0.60865486331317
  H           1.35933787617161     -1.04328587759442     -1.18157186777253
  C          -1.28704948874353     -1.26099636077794     -1.23791331734034
  C           0.96390877553542      1.03135630836452     -0.00677227467084
  C           0.34096848559073      1.18381881100487      1.24674257905010
  C          -0.99375049380479      0.75906163416326      1.41253797481776
  O          -0.97806316710435     -0.89267303523161      1.12138419607701
  O           2.28250654234157      1.38706414166175     -0.07276993781194
  H           0.37826020279996      1.28883307526343     -0.88836950545813
  H           0.99542138370670      1.21883568161873      2.10493715556456
  H          -1.71002606695219      1.05974452131034      0.65513026655540
  H          -1.39583962263495      0.79456379889231      2.41565642182241
  F          -2.48074881911052     -1.79819117307337     -0.99371809571143
  F          -1.52647673193992     -0.03885611655303     -1.78759425496753
  F          -0.71258042505877     -1.98252322416042     -2.21470272296069
  H           2.59541530923852      1.38538398116543     -0.98364827745563
