18
Coordinates from ORCA-job NEB_product E -38.689906961640
  C           2.18841488391819      2.12945754272286     -1.09644143312068
  C           0.95997372040741      2.18242257321641     -1.94930256745922
  H           2.04703347308912      1.34168056542061     -0.35088256614396
  H           3.04611448592245      1.85879905874100     -1.71770489652285
  C           0.84604552672160      0.93483698001373     -2.88468252986629
  C           2.47390542481642      3.47701977088034     -0.41700143797912
  C           3.41051223431736      3.28815134219935      0.74657147243176
  C           3.07477782241447      3.49721156705922      2.00486752336472
  O           0.10962566912562      3.01908897727927     -1.95670329166110
  O           3.04965901563520      4.29728791924038     -1.41556730294092
  H           1.52285459469940      3.90729029569414     -0.06835218827793
  H           4.41037111106416      2.98062848982000      0.47291464747114
  H           2.08158489461954      3.81214919698585      2.28125688702355
  H           3.77316624022496      3.35528746404629      2.81136259769958
  F          -0.27434584398902      0.92669346522782     -3.59944080407504
  F           1.87649223073162      0.86788765185216     -3.73978856427730
  F           0.87191903621314     -0.20038781187783     -2.16240823283171
  H           3.18999548006834      5.18029495147840     -1.05909731283463
