18
Coordinates from ORCA-job NEB_reactant E -38.697599883870
  C           1.36320692776865      0.36086226762462      0.03282919272973
  C           1.62314569258509      1.08070258407552     -1.05087949936440
  H           1.61123681634941      0.69949950873479      1.02063604590934
  H           0.88733004299584     -0.59704863922469     -0.05191211163916
  C           1.26530330790857      0.58576172409900     -2.43940660116649
  C           2.76821219621215      5.40899195697383      0.02245035374130
  C           3.26357848794121      4.23011518107669     -0.33087161467917
  C           2.63599364274705      2.92886756444706      0.04457462115961
  O           2.20779545067596      2.29130010080251     -1.15615475142247
  O           3.28574481679788      6.61067290317409     -0.29059250349718
  H           1.88554667320372      5.50898249583615      0.63832710165627
  H           4.14112689383307      4.16218332801301     -0.95832237847526
  H           1.77568761346222      3.08927213528838      0.70506762877504
  H           3.36272551071485      2.27821840769996      0.55119716963279
  F           0.41178822802432      1.40947143996122     -3.06295661354129
  F           2.34451078170927      0.48164082219209     -3.22793376404311
  F           0.68726420529792     -0.62206247708529     -2.42354397025975
  H           4.05840271177283      6.50336869631106     -0.86100830551579
