21
Coordinates from ORCA-job NEB E -45.943394103800
  C           0.09164671041365     -0.52373965263335      0.97322588108619
  C          -1.08207870545200     -0.94580250576242      0.30602380553174
  C          -0.09230015320224      0.40633656919311      2.04170946393229
  H           0.81562012701931     -1.29872265498151      1.21372666200787
  C          -1.12305571699065     -2.30885372674925     -0.34046190244425
  C           0.92111896184169      0.56607941382451     -0.33719558634689
  C          -0.10025039702450      1.47602667170164     -0.63622520482053
  C          -1.32417768460089      0.97144372026412     -1.17454808490837
  O          -1.93057747737949     -0.05702519626732     -0.11434180148939
  C           2.21776025712821      1.08454671692771      0.24361236916355
  H           1.10639424100379     -0.23198938277395     -1.05101261793671
  H          -0.11690343422700      2.41579695556147     -0.10318004406861
  H          -1.22630404265352      0.33121234293353     -2.04928851906511
  H          -2.12502847705642      1.69424500661937     -1.28014427470850
  N          -0.28310574459591      1.12221939945754      2.91134988230809
  Cl         -0.46984039330596     -3.55767097665117      0.73260633827090
  Cl         -2.78450812672635     -2.72371147438508     -0.78402817651007
  Cl         -0.12991254742679     -2.33576635448074     -1.86364412052591
  F           2.02988105503603      2.19867759547070      1.01147422248085
  H           2.88951808259478      1.37624685573282     -0.57385359074595
  H           2.71610346560426      0.34045067699824      0.87419529878880
