21
Coordinates from ORCA-job NEB_reactant E -45.978877013490
  C           1.89961031203982      0.43291637160574     -0.13172091974743
  C           1.48393615231703      0.18788374028757     -1.38660816484815
  C           2.15897867381272      1.67880552017116      0.45297934920131
  H           2.03827315225109     -0.39988245653235      0.54239243457865
  C           1.24425814933520     -1.22854635912790     -1.86710888840327
  C           3.86642079130834      3.39396219151253     -1.66753478688614
  C           3.17668723538091      2.49635213035406     -2.34945348186557
  C           1.68186154919843      2.38521919860428     -2.32634857531396
  O           1.24966727493364      1.03051099150906     -2.39697729067435
  C           5.35333900782492      3.51969185011974     -1.70403170891242
  H           3.38048118864655      4.10451569558873     -1.01480988822417
  H           3.67801474060274      1.78540150179881     -2.99209573250946
  H           1.25991776515603      2.83089268238546     -3.23393481171173
  H           1.25592515066353      2.88690989144274     -1.45216022888829
  N           2.35848357190848      2.66070155165388      1.01457734644704
  Cl          1.06027551093501     -2.40429865027202     -0.56449122316272
  Cl         -0.21297198760262     -1.28803113133166     -2.88222512675384
  Cl          2.65642971780928     -1.69908113492742     -2.86359870433945
  F           5.93194702755195      2.59298508054254     -2.53220803069010
  H           5.77503470136976      3.36325665352162     -0.70347186853803
  H           5.65443031455719      4.50813468109342     -2.07296969875791
