21
Coordinates from ORCA-job NEB_product E -45.976012047310
  C           2.99913163477288      0.83417543834415     -1.00347801412757
  C           1.61440246003110      0.33786164340673     -1.37641171854388
  C           3.05711798486944      0.87138712934775      0.44471692108582
  H           3.76823953849861      0.13952942571424     -1.35628955822676
  C           1.61244298487434     -1.05920877093084     -2.02986520051346
  C           3.22916342456078      2.23572232538498     -1.63445444679899
  C           2.34785655140011      3.27218510539485     -1.00033729487502
  C           1.46902607096201      3.99154808065508     -1.67037971805663
  O           0.60210203612158      0.94510056972557     -1.21195270773873
  C           4.70673097174356      2.62642342859243     -1.51652090348065
  H           3.00403509457210      2.16003902393553     -2.70396054612402
  H           2.49114398135153      3.40664316304093      0.06265126848872
  H           1.31468243952425      3.86238938554357     -2.72940714475277
  H           0.85984520406896      4.73292628145226     -1.18503484626928
  N           3.08921089255613      0.87240788088171      1.58497555759324
  Cl          2.39935100661193     -2.21755446429058     -0.93009987308548
  Cl         -0.03034786530088     -1.58818030077470     -2.38830129414225
  Cl          2.54508818171676     -0.93985320432275     -3.54382405005213
  F           5.10499123530250      2.69036873748285     -0.21005891103270
  H           4.86818231557074      3.61931972211931     -1.94878152634112
  H           5.35470385619154      1.89256939929692     -2.00958599300632
