16
Coordinates from ORCA-job NEB_reactant E -28.824598616620
  C           1.39084609547807     -0.02775312587575      0.02426377833982
  C           1.59011377566747      1.12570419069369      0.66314960376533
  I           0.77671873186742     -1.75109081182936      1.04946678632175
  H           1.52544742200331     -0.14498668964091     -1.03403719529642
  N           2.07022695194788      2.26707485864057      0.03940037512491
  C           3.84878925942299      2.85592882428123      3.74105990192817
  C           3.53243253254168      2.05046535804978      2.74707658890650
  C           2.46263735350359      1.00495233352649      2.86136998364099
  O           1.35612023245208      1.26848246764970      2.00506565155807
  I           5.33357693614920      4.33776784788350      3.59011129157136
  H           3.38692714411925      2.81264353826275      4.71298862101407
  H           4.01212918250136      2.12811490002834      1.78143158178281
  H           2.03643570435037      0.98347186405922      3.86648693357248
  H           2.88970113892423      0.01948856590731      2.63037838312951
  H           1.81683605304466      3.12527428658425      0.50716382958750
  H           1.95606148602644      2.30126159177919     -0.96147611494685
