28
Coordinates from ORCA-job R E -34.832017066910
  C          -1.76129272001597     -0.36424794680538     -2.86865522184484
  C          -0.39814624714561     -2.97516163621570     -2.19293860957337
  C          -1.69411172832261     -2.70016152384649     -2.06307713398615
  C          -2.36577887351607     -1.47675928286958     -2.43826116070083
  C          -0.27603676945326      2.26948431355614     -0.39994056325897
  C           0.02746138341832      0.97399282482232     -0.35242461186626
  H          -2.34268447293424     -3.45681977628605     -1.63837891785269
  H          -3.44301083776513     -1.46581800476993     -2.35570169991285
  O          -2.46789008369795      0.73761791848265     -3.21294932671173
  H           0.00788603665397     -3.91952906115444     -1.87344464733525
  H          -0.68425822927423     -0.28854217374684     -2.95917927366764
  H           0.30033856135022     -2.27401697366623     -2.61435637322100
  H          -1.27598210643094      2.59542989039970     -0.17903302700419
  H          -0.73865792245716      0.25542891759794     -0.09207798952236
  H           0.43569053299139      3.03908752851679     -0.63970260001196
  N           1.22497890616327      0.38172591433237     -0.68869997349526
  C          -1.70459316066790      1.85876779502693     -3.59758318477691
  H          -2.41683442178269      2.63817519474714     -3.86205377084979
  H          -1.07457419453288      1.62988865699536     -4.46352126983219
  H          -1.07504701547264      2.20183489910471     -2.76873550649031
  C           1.53175845577056     -0.88301367795426     -0.06472467873338
  C           2.36580730152035      1.23154284186731     -0.92800912540936
  H           0.63605295971932     -1.50112176146839     -0.03878191571424
  H           1.91064408904092     -0.76321578007504      0.95949645568720
  H           2.29028011443502     -1.40253592978938     -0.65193924047360
  H           2.69683522154963      1.75858974149845     -0.02318364927148
  H           2.11459496221845      1.97074443578950     -1.68813546485339
  H           3.18967025863788      0.62228265591040     -1.29851751931721
