21
Coordinates from ORCA-job NEB E -41.302663833760
  C           0.87842923587551     -0.13262501549450      0.79868128531592
  C          -0.28401392478828      0.32048265058773      1.64801533143536
  O           1.90579229768512      0.80750503453885      0.86615856366828
  H           1.27833685678853     -1.08156046956452      1.17183380474503
  C          -1.36076793479463     -0.70371950633365      2.04211838778237
  C           0.37409001287571     -0.34991358740283     -0.66542992035918
  C          -0.24265367453207      0.91222147126470     -1.18987228368943
  C          -1.43980770723761      0.98621809382527     -1.73759953953377
  O          -0.40760648409335      1.46558213866876      1.98865741608957
  C           1.56315306854348     -0.77078535729220     -1.54895957478102
  H          -0.37645091543091     -1.14304771052528     -0.64676416891874
  H           0.38664905103753      1.78992434432828     -1.12476988740924
  H          -2.08058096586780      0.12483639550260     -1.82727248105926
  H          -1.83039332583612      1.91280561793615     -2.12115980278529
  H           1.51138661702970      1.67241067172670      1.05456400509478
  Cl         -0.88704988610894     -2.38771154424731      1.80957920586650
  Cl         -1.77298973611986     -0.45417548356568      3.75215876916822
  Cl         -2.79109954975496     -0.35940588433436      1.03927067737187
  H           1.35392102969314     -1.71137124461801     -2.04899577081362
  H           2.46462747504377     -0.88150973809080     -0.95343519831287
  H           1.75702845999204     -0.01616087690992     -2.30677881887549
