21
Coordinates from ORCA-job NEB_reactant E -41.298680799220
  C           1.58462539142679     -0.08930427756946     -0.15796131309056
  C           1.55732623590590     -1.25429157564280     -0.81421030950311
  O           1.96367964837755      1.10214653048319     -0.71277490656063
  H           1.28139427330188     -0.06844983521069      0.87724114633274
  C           1.12289270120986     -2.52924811743145     -0.14969344285534
  C           2.85520806970797     -2.42580555852177     -4.52018526626495
  C           3.17494447359202     -1.21710768748677     -4.09213849848374
  C           2.73214652693391     -0.61433603454905     -2.79391869685275
  O           1.90830858221984     -1.53529465855069     -2.09732434849339
  C           3.30625539183899     -3.00843969202273     -5.81613306473314
  H           2.22463701935811     -3.05734319771534     -3.91136458634529
  H           3.80367853753368     -0.56267178362991     -4.68128291741699
  H           2.18280522684986      0.31663909396804     -2.98422392038099
  H           3.61095900041788     -0.36584069051265     -2.18263187263541
  H           1.94735283561175      1.79039752186992     -0.04064176284598
  Cl          2.55432599617622     -3.58355713689708      0.06819273430765
  Cl          0.36684303516138     -2.30515770676075      1.42515039108490
  Cl         -0.03111110786162     -3.38359027951186     -1.19916904377799
  H           3.86975450277492     -3.92396981649973     -5.63898047209034
  H           3.93275730854449     -2.30913084737182     -6.36444056798923
  H           2.44431635091865     -3.26734425043661     -6.43020928140547
