18
Coordinates from ORCA-job NEB_product E -37.166276966300
  C           2.54780937230852     -1.08087803103704     -1.03154056481459
  C           1.58824974401614     -1.56573964369028      0.05680896579318
  C           2.52901025035800      0.43682766116654     -1.09433339504961
  H           3.55362682379102     -1.38805410760877     -0.70100969032984
  H           1.51506205008152     -0.88990351128454      0.92649674978540
  C           2.25020658647827     -1.83667626324065     -2.35478731853926
  C           1.13686362164835     -1.25663273858008     -3.19164377031410
  C          -0.07718901438957     -1.77300895288893     -3.21444799820106
  O           0.98628282551570     -2.59319119101650      0.00323963880478
  C           3.45355881179350     -1.96459703790205     -3.14903401304897
  H           1.95640090564048     -2.85117217764732     -2.04608357031369
  H           1.39238308711135     -0.40592509647464     -3.80877521486425
  H          -0.34543028748180     -2.62844885357624     -2.61620992351278
  H          -0.85555914454218     -1.34547125802537     -3.82141602666583
  Br          0.69808455898709      1.12901247540185     -1.17544792187773
  Br          3.34214937915647      1.15897436905852      0.54695886119419
  Br          3.54458027428905      1.16329822723355     -2.59187796825028
  N           4.40421015523811     -2.08071386988806     -3.77129683979557
