18
Coordinates from ORCA-job NEB_reactant E -37.163056956550
  C           1.40215385524169      0.11810318724694      0.00414703467222
  C           1.11480754697589     -1.19175176881859      0.05285542620090
  C           1.45220359324096      1.10079480958600     -1.09500666490013
  H           1.62299930579166      0.55440079138653      0.96766315610758
  H           1.11591386150242     -1.62026671011660      1.05155813678885
  C           2.74257016732190     -2.46974991998152     -3.83846634550351
  C           2.18025626710619     -2.71113830331724     -2.65648783164289
  C           0.88780290212292     -2.10296609397264     -2.20680701356433
  O           0.77273218819612     -2.15636447047626     -0.79144143360969
  C           3.94294939045221     -3.09103601032134     -4.23535225481339
  H           2.30759913738978     -1.78732898585760     -4.55659954780696
  H           2.63775462682122     -3.39571811014500     -1.95511362271636
  H           0.05625227710184     -2.71988478014603     -2.57249435837344
  H           0.75957755265816     -1.09921217139530     -2.61208236241397
  Br          1.83997049511030      2.88264762717002     -0.38192906876404
  Br          2.87594984023239      0.73648635684354     -2.44779299867723
  Br         -0.27780263165579      1.27540227075804     -2.07021349958757
  N           4.91740962439014     -3.59601771844295     -4.56543675139605
