23
Coordinates from ORCA-job NEB_product E -53.637763214380
  C           2.09202487559110     -0.52593972816844     -2.04065750321507
  C           0.74978924152200     -1.27423542460356     -2.13356427759113
  C           1.93603557213425      0.56978470882381     -0.97170698924470
  H           2.89460946865092     -1.18974323238267     -1.70556197771794
  C           0.80027323998527     -2.67522441737286     -1.55251839935100
  C           2.44707855122684      0.09351003370043     -3.40960522370925
  C           3.60614670798784      1.05184355495865     -3.33008476725273
  C           3.51403823206140      2.32453361111338     -3.66100468460560
  O          -0.22572784250127     -0.77436420791697     -2.60659301502163
  C           2.81636363244951     -1.03056479166564     -4.37362813433277
  H           1.56062698444281      0.59750947905312     -3.81108857362047
  H           4.53493724460186      0.62410403452330     -2.97918728115613
  H           2.58919432135744      2.75936432916797     -4.00099447280050
  H           4.36143382485403      2.98273492080089     -3.59091599434054
  F           3.14852874453214      0.99776675723491     -0.55055896959984
  F           1.29061980650260      1.64750670272391     -1.44927017205122
  H           1.38879533007909      0.21240682674205     -0.08404796312217
  F          -0.44662731003366     -3.20392955454812     -1.42457564276307
  H           1.26412625991939     -2.67501674318496     -0.55878842399897
  H           1.36890167472444     -3.32512331871635     -2.23020976582399
  F           3.89022464930928     -1.72293316072860     -3.95264118386849
  F           1.83703112813716     -1.94066980619465     -4.51703507407812
  F           3.10137566246556     -0.57522057335961     -5.59376151073467
