22
Coordinates from ORCA-job NEB_product E -39.262628560620
  C           2.80534352146756      0.17068768267704      1.15470742113274
  C           1.83962630885464      1.27488684047839      1.62186327978535
  N           2.06970422321298     -0.92637516940438      0.54444061042663
  H           3.48152283801127      0.57287880157623      0.39170248240625
  C           2.07672948247193      2.63258575840816      1.02285226550689
  C           3.64912332588159     -0.45282385950288      2.29454539921106
  C           2.78372765759424     -1.05205555200483      3.36799879040348
  C           2.86881950148144     -2.31651380032153      3.73710864004730
  O           0.89672989110532      1.01573283498223      2.32777154709844
  C           4.64472418523727      0.50773431854215      2.92354532850015
  H           4.23151383257028     -1.25690782171661      1.82327080599967
  H           2.06991524962627     -0.38443716081192      3.83015619056110
  H           2.23941820392527     -2.71771981542614      4.51191313788946
  H           3.56739578719128     -3.00057984363156      3.28297773164842
  H           1.38749847686848     -1.29095856796365      1.20321179209604
  H           1.57047627950240     -0.60826375345168     -0.27842120161083
  H           3.12701303421586      2.91048364715197      1.06023282404421
  H           1.47362045845951      3.37654121461844      1.53645880151341
  H           1.77968559360876      2.59989268149935     -0.02553782469188
  Br          5.81399842105908     -0.47391440633770      4.14898859966780
  Br          5.80760755995841      1.34094067087121      1.58677022229421
  Br          3.80410616769615      1.93848529976770      3.94534315607011
