17
Coordinates from ORCA-job NEB E -37.289361637550
  C           0.64565135350558      1.00068328547542     -0.57877794436028
  C          -0.45360461315118      1.26719563409532      0.26979810079093
  Br          0.37020699966833      1.21999914972763     -2.45816346457270
  H           1.60631363001405      1.41443738619819     -0.27951781837963
  N          -0.12662455955148      1.54500198075141      1.65683226025647
  C           0.78584029856294     -0.84253383153189     -0.28366239875778
  C          -0.51377867613511     -1.31356095925206     -0.55749084531754
  C          -1.59083634658227     -0.84553183031286      0.26860668421500
  O          -1.60137658385424      0.70606622717249      0.04693036776382
  C           1.84765628135468     -1.27684147250202     -1.14046245694786
  H           1.10524345760701     -0.80493878246196      0.75823401381460
  H          -0.73514009767535     -1.65099481152330     -1.56063602709481
  H          -1.45853112067840     -0.93833708377021      1.34760520221296
  H          -2.58417751465509     -1.15046195071382     -0.04246885143371
  O           0.98455777183301      1.98582121907477      1.89027407160457
  O          -0.98287650544235      1.30337145865491      2.47989856557121
  N           2.70147622517988     -1.61937561908201     -1.81699945936524
