17
Coordinates from ORCA-job NEB_reactant E -37.319579688700
  C           1.90291030111879     -0.56210234655886     -0.23220040490647
  C           1.32414024642197     -1.23472781166491      0.76646068197249
  Br          1.90246629474829     -0.96016852620072     -2.06399362671157
  H           2.42685462430932      0.35166439517104      0.00727406141707
  N           1.46065161091676     -0.63352599490728      2.11530913507887
  C           2.45813105692107     -4.37962841113101     -1.48914616422506
  C           1.98207565912124     -3.96064260376543     -0.31904356576920
  C           0.62775383938829     -3.35143782558516     -0.13909493120838
  O           0.61517164588352     -2.35786199225779      0.87679560945504
  C           3.72879009486431     -4.97747177049892     -1.60960546241054
  H           1.89538332508388     -4.28211174059600     -2.40836149797140
  H           2.56636826848836     -4.06430838472889      0.58625280113446
  H          -0.06276677060538     -4.11107892939931      0.24629056560895
  H           0.22729174888885     -2.96430508659422     -1.08153930668065
  O           1.04654508789429     -1.28608976708917      3.03489061698723
  O           1.97461439562078      0.45789891120558      2.18668696058661
  N           4.76001857093565     -5.46650211539897     -1.71117547235744
