17
Coordinates from ORCA-job NEB_product E -37.317834613740
  C           1.89636671022001     -1.94163945630978      0.30465974577523
  C           1.76414465208423     -2.01407778426078      1.79061984536593
  Br          0.40254253270480     -0.72646184285526     -0.16145096146714
  H           2.80782347130179     -1.42262283417484     -0.00177932947923
  N           2.40903356470593     -0.79968842117638      2.51091378438268
  C           1.72850711339300     -3.30232671504937     -0.37693521460455
  C           1.71240340725470     -3.16678680171686     -1.87888172186983
  C           0.70039965295857     -3.55715827579132     -2.62796371726396
  O           1.20622899465815     -2.81829876357432      2.45468286228237
  C           2.85278098061899     -4.13116195777097      0.01700554717083
  H           0.80462674337609     -3.77873587999886     -0.02629452615953
  H           2.59764550654893     -2.71882676721276     -2.30889592700407
  H          -0.18483861189774     -4.00628109082019     -2.20835667958053
  H           0.71559708597132     -3.43843822130244     -3.69687183704797
  O           2.18497377490029     -0.72302812344000      3.68350194277134
  O           3.08107037871104     -0.06355600688536      1.83112935049496
  N           3.76179404248991     -4.75821105766050      0.30501683623348
