23
Coordinates from ORCA-job R E -30.633881145120
  C          -1.20661736953249      0.09673662698605     -2.89122046322438
  C          -0.31502001210378     -2.41497343207304     -1.45412369758687
  C          -1.57117280432544     -2.01848591979729     -1.65556707186321
  C          -2.00814253514845     -0.85322680992083     -2.38151916980932
  C          -1.06172507398529      1.05642646449850      0.04407063056603
  C          -0.17257973587922      0.18408213724630      0.50508821555424
  H          -2.37235687910445     -2.62098448090256     -1.24349536980634
  H          -3.07858379370701     -0.74731274843426     -2.51077916451403
  N          -1.65715538039020      1.23754991488429     -3.50588944606810
  H          -0.09470486601371     -3.30833525996566     -0.89447226816370
  H          -0.13517761120516      0.05311129659981     -2.76939501230326
  H           0.53046181787913     -1.88180418675802     -1.85105378540845
  H          -2.07155094556149      1.10381459518285      0.41342090968405
  H          -0.41948664738947     -0.52186950386737      1.28435869702676
  H          -0.78439052113743      1.76050166305660     -0.72236844650714
  C           1.20523150523465      0.13261848466352     -0.02343626263857
  H          -2.61870775165864      1.23465924163721     -3.80924323948169
  H          -1.01672029745958      1.71392635150783     -4.11785998426974
  O           1.56505139499980      0.76823938792384     -0.99019601023770
  C           2.13252685301502     -0.77846429144035      0.74236523013125
  H           1.74052781592986     -1.79290219973131      0.72450519743271
  H           2.18433394962503     -0.45396062759137      1.78010279332560
  H           3.12726888791832     -0.76286670370475      0.30474771816188
