18
Coordinates from ORCA-job NEB E -34.433149395200
  C          -0.08691689114562      1.03105324052657      0.42997739319348
  C          -0.90028162134965      0.04928530784313      0.98773538169904
  C          -0.55932678370066      1.70241682642134     -0.83224934561759
  H           0.46781756778563      1.68478390094152      1.09460865598399
  O          -0.77854928960673     -0.27728292420373      2.30143079636878
  C           1.38832562734379     -0.26872054804962     -0.29196168949830
  C           0.87245180774337     -1.54472730571383     -0.16704472233979
  C          -0.41748189627703     -1.78282351671978     -0.68412971624917
  O          -1.48773417691540     -0.81747253968163      0.25730710377439
  F           2.46484251997706      0.04521104569310      0.45368212825333
  H           1.41784101162246      0.25834057526567     -1.23653615264192
  H           1.18506771495254     -2.11414457208308      0.69863647285945
  H          -0.85268396825579     -2.75741596177966     -0.51583116919052
  H          -0.65029924631429     -1.36708852576669     -1.65692081739665
  F           0.47619909213052      2.28236350769930     -1.52303753585194
  H          -1.25215623505973      2.51827464505474     -0.58902213120983
  H          -1.04917895605103      0.99573381047046     -1.50772830303179
  H          -0.23793627687946      0.36221303408221      2.78108365089506
