18
Coordinates from ORCA-job NEB_product E -34.498084104740
  C           2.46014040861103     -0.66620517830525     -0.48990342333610
  C           1.69854791074265     -0.84728729948255      0.82928171714227
  C           1.48182343462746     -0.26538235916858     -1.58996401305707
  H           3.19660349287446      0.13693866921699     -0.35521982381802
  O           2.44105730342457     -1.20829341133656      1.87404534204507
  C           3.23042759877605     -1.94379539656319     -0.88704294732236
  C           2.36468165770562     -3.16545969451654     -0.85194698663058
  C           1.87851549061635     -3.73672072317662     -1.93711302384904
  O           0.51996210676902     -0.66451134636731      0.92576432168179
  F           4.28717937991705     -2.09527119075792      0.00860262761962
  H           3.68859637792002     -1.80220096974081     -1.87251842970212
  H           2.14410558298609     -3.54507289265654      0.13600907863784
  H           1.23646834650074     -4.59786653737978     -1.88083284114534
  H           2.09898804089309     -3.36182398440621     -2.92331864785432
  F           2.16288252222984     -0.01425416237897     -2.75443034276987
  H           0.94561511413980      0.64745294431572     -1.31950111052068
  H           0.76893475187843     -1.06899232373490     -1.79500487877880
  H           3.36747047938772     -1.39165414356097      1.65039338165771
