19
Coordinates from ORCA-job NEB_reactant E -41.552918806880
  C           2.36631008691932     -0.12256336323124     -0.66664329918982
  C           1.46703782980987     -0.88765606333455     -1.29694692347483
  Cl          3.15093241365533      1.29009191843515     -1.28367210454924
  H           2.67154554378456     -0.36962174268410      0.33480361358669
  N           0.92864691157766     -2.00359492233797     -0.66840727437041
  C           4.19368318737369     -0.24299877965079     -4.01357475287363
  C           3.08127101746250     -0.88475003293819     -3.69517833108712
  C           1.74283001032193     -0.22287221019959     -3.59016593659973
  O           0.95438104306506     -0.78097297196162     -2.55533159139483
  C           5.54190670912131     -0.85291475614888     -4.12365139786107
  H           4.18793114043617      0.81942777224989     -4.21471154054632
  H           3.08465647674299     -1.94359946726829     -3.47736345804617
  H           1.16241243440300     -0.42466617961913     -4.49815384382626
  H           1.84553385305409      0.86050377753357     -3.47336226068611
  H           0.08563073455094     -2.32912831302645     -1.11800546449062
  H           0.85990386968758     -1.95149414662504      0.33516333493366
  Cl          6.18219246421605     -0.58354009089908     -5.77409317815128
  Cl          6.64342658340601     -0.04890946044148     -2.96588128588739
  Cl          5.57186769041197     -2.58914096785218     -3.79992430548551
