22
Coordinates from ORCA-job NEB E -33.157440817530
  C           0.46120000556045     -0.98928749856367      1.86154789515459
  C           0.77780451378313      0.09949926404136      1.01751557354136
  C           0.17948283699143     -2.26802481596987      1.04405774416787
  H           1.41201887602669     -1.19839196553330      2.39642175737965
  O           1.79529275412979      0.15854554923777      0.11822782323258
  C          -1.04168229014147      1.43012749994651     -1.53360600005254
  C           0.04260939668220      2.09885148566985     -1.16108100905420
  C           0.39916940055169      2.31959813083382      0.27969473366155
  O           0.08666095060185      1.18367040076902      1.10002407067930
  O          -1.41862082772296      1.17722614008301     -2.80199510257056
  H          -1.73510802628062      1.00968114141197     -0.81866312494924
  H           0.72724608164243      2.50330966139795     -1.89302544737105
  H          -0.18647797202222      3.13304048866338      0.71906190470600
  H           1.46480783506802      2.55077313829510      0.36997247463900
  C          -1.13085369185695     -2.13644512445084      0.27722421350534
  H           0.09688921265609     -3.08671946601583      1.76021369888957
  H           0.97955825992450     -2.54751743577058      0.32607606090753
  H          -1.91396604066459     -1.79720877522571      0.94935016361072
  H          -1.42363349773105     -3.09377527920812     -0.15189447897196
  H          -1.03469388860086     -1.41381999789333     -0.53212545284768
  H           2.24889721313120     -0.69588619577403      0.09601439914371
  H          -0.78660110172874      1.56275365405555     -3.42301189740155
