22
Coordinates from ORCA-job NEB_product E -33.271251371850
  C           2.46008988591388      1.25520097710969     -0.39518191811035
  C           1.28419354406954      1.03119068795326     -1.33424687715545
  C           2.19801245039159      0.57207309566594      0.95023621149896
  H           3.36649041671483      0.82680925793945     -0.84099992972432
  O           1.56139312185983      1.21982641663083     -2.63982624011682
  C           2.70521274990062      2.78693592565721     -0.30179648999937
  C           1.79303273205139      3.43999367919570      0.69907950313412
  C           0.61150055847123      3.94050676344487      0.39317809509187
  O           0.18161007526350      0.73236602057155     -0.98322331535336
  O           4.07317541521321      2.97813425248653      0.00346485091627
  H           2.50076988329673      3.22861265484691     -1.29583642883629
  H           2.17239395322708      3.47469351729941      1.71134114425150
  H           0.22109339510934      3.90360594024966     -0.61032494510606
  H          -0.02318755612583      4.38959873526390      1.13694409820619
  C           3.43459702493993      0.52594879307625      1.83731622244714
  H           1.86037467446078     -0.44634343866412      0.74567760823114
  H           1.38017132008938      1.08561901444369      1.45653588938602
  H           4.22690430162377     -0.04295598709325      1.35586913965617
  H           3.19682798849904      0.05040579038938      2.78562939527703
  H           3.81239402351375      1.52483625018600      2.03261835331814
  H           2.49195890417359      1.43317915091515     -2.79313371244543
  H           4.21609113734283      3.90326250243198      0.22917934543291
