26
Coordinates from ORCA-job NEB E -48.279837324870
  C          -0.00271185309668     -0.43818984828464      0.70908822748405
  C          -1.40002940369800     -0.55836974386087      0.21032044545447
  C           0.05490484409914     -0.29828435243678      2.24342174831122
  H           0.53167808364661     -1.36313761914273      0.47242030100289
  C          -1.85184793249663     -1.80990611813810     -0.44116992599530
  C           0.70105900391457      0.75867219234043      0.02799491542805
  C          -0.19920216581565      1.92920622428456     -0.02176606152643
  C          -1.63198413158924      1.78598779190329      0.31649429340416
  O          -2.15675781232576      0.52713645730812     -0.09570988346789
  C           1.21303547538223      0.39460767939810     -1.38966339874662
  H           1.59308775022937      1.00261309683685      0.62419183738299
  H           0.13439152707449      2.82688451685032     -0.50912828322438
  H          -2.24609178627265      2.53310474723069     -0.19268017730062
  H          -1.81795513475182      1.88619404815191      1.40378645838361
  F           1.35707442512368     -0.40868956465196      2.65831020850643
  H          -0.50583218662612     -1.10310337684300      2.72797264781643
  H          -0.29960739343542      0.67649884584465      2.58885224230069
  F          -3.17424381614390     -1.87536818205140     -0.60253617703824
  F          -1.31745651826161     -2.01668262784466     -1.68353269866043
  F          -1.47995933722743     -2.89345207201937      0.26854707493643
  C           2.42325478487800     -0.52888253374407     -1.36494520123436
  H           1.48432412283542      1.32158928592443     -1.89815848673593
  H           0.40150798815789     -0.06845855007292     -1.95300742171349
  H           3.23593110154322     -0.08152986590595     -0.79683633537273
  H           2.76943361209259     -0.70629952401328     -2.38007228705689
  H           2.18399675276372     -1.49214090706360     -0.92219406233811
