26
Coordinates from ORCA-job NEB_reactant E -48.341097281460
  C           2.25876371206575      0.07267185085325     -0.58947902660081
  C           1.49946353226710      0.48675943382970     -1.60336606029391
  C           2.59293829731127      0.89496263386695      0.61672708831661
  H           2.67729292898940     -0.92063847196385     -0.62556795744638
  C           1.16278230255191     -0.47152610726896     -2.73886275892858
  C           3.91849209068012      2.53453413038990     -2.96414913495860
  C           2.61952004966478      2.76997347246273     -3.05921964444985
  C           1.71586486783819      2.85952788005418     -1.86905208062750
  O           0.88654671105373      1.68037983839033     -1.77217821947645
  C           4.83268447869007      2.34521079957613     -4.12855149927151
  H           4.38241720048707      2.44580857739061     -1.98958301410144
  H           2.13592360431421      2.83595753018609     -4.02357981113119
  H           0.98854033533008      3.66708394521055     -1.97241070482549
  H           2.30034543680617      3.00446471845772     -0.95804590281118
  F           3.79147836566134      1.55910182564085      0.44946815979233
  H           2.71837584250326      0.25282149537360      1.49359560950302
  H           1.83172212782963      1.65652447869021      0.81199737613723
  F          -0.15500186810654     -0.55124206097992     -2.95121059938058
  F           1.71724144085747     -0.08333761347711     -3.89805469332736
  F           1.59343009327873     -1.72197930884055     -2.51644763779021
  C           5.38205830656689      0.91789125150844     -4.14164747273048
  H           5.66533968088417      3.04921944470574     -4.05172264519465
  H           4.29828070573191      2.54134576276939     -5.05904146771263
  H           5.90959764159026      0.70387272151998     -3.21480291563439
  H           6.07127986818864      0.78454590384792     -4.97164152525419
  H           4.56732224696437      0.20576586780612     -4.24937346180180
