19
Coordinates from ORCA-job NEB_product E -29.606096817310
  C           3.06716480187701     -1.80575309465217     -0.85661249047317
  C           1.64849769208314     -1.30426231853026     -0.59919597073340
  F           3.97935222486281     -0.83663043699384     -0.50215145304735
  H           3.30203651197578     -2.68713795274764     -0.24855899797722
  C           0.66153334438807     -2.40415329223422     -0.31130387360883
  C           3.25304377441886     -2.14666489253067     -2.35287778778735
  C           3.09733904986987     -0.90150347022612     -3.18537825923828
  C           2.19543005656363     -0.76097834065170     -4.13731415881705
  O           1.36224842901312     -0.13961583001382     -0.62999083602455
  N           4.54999697537121     -2.79430387608984     -2.49897137192283
  H           2.48779959393104     -2.88050676546700     -2.63347520576699
  H           3.80245773586649     -0.11276569086157     -2.96180558531582
  H           1.48368572869786     -1.53841080267729     -4.36557372015074
  H           2.12518003732006      0.13783334711643     -4.72485467620416
  H           0.84938066999473     -3.27438784747727     -0.93363787508698
  H          -0.35195259332387     -2.04160603469980     -0.45887312959980
  H           0.77577797515170     -2.70057855232284      0.73062044084694
  H           5.28254513406327     -2.16592373084626     -2.18263207609331
  H           4.72468285787524     -3.00825041809413     -3.47471297299909
