21
Coordinates from ORCA-job NEB E -38.037454094050
  C           0.05576571539009      1.08223375709685      0.59739973747418
  C          -0.88624158196187      0.16427549651720      1.09492434804432
  C          -0.44425263279627      2.25625328203606     -0.02386674335178
  H           0.96262129913372      1.24727091997992      1.16905784704319
  C          -0.48364077702620     -0.80190378642289      2.19280976500439
  C           0.65504934376501      0.13473158634555     -1.07177583922746
  C          -0.30965596839918     -0.84617800358671     -1.32009301981658
  C          -1.65696433192342     -0.45841133326108     -1.28075866059539
  O          -1.92398874847720     -0.14351424811585      0.41739585440580
  C           2.07421552191760     -0.28942101399329     -0.80414161953889
  H           0.59272545977412      1.04636120942779     -1.65687976021817
  H          -0.07385458427754     -1.86644530098900     -1.03898048386261
  H          -2.42281792345860     -1.20638080579361     -1.42503957422557
  H          -1.91150249083496      0.51963481171271     -1.67100291444328
  N          -0.85172418425757      3.20814505467430     -0.51228665629793
  F           0.78221308085448     -0.56287367591187      2.65234147399046
  H          -0.50935664004029     -1.83055272753618      1.81044008030260
  H          -1.16597176141866     -0.71788329278200      3.04600058794410
  F           2.86739315149467      0.80178414185200     -0.56179059540727
  H           2.49351458830184     -0.79318614473128     -1.68413419401341
  H           2.15647346424024     -0.94393992651860      0.07038036678929
