21
Coordinates from ORCA-job NEB_product E -38.085985242860
  C           2.86622535068590     -0.74361530377660     -1.03498048539265
  C           2.43023764347585     -1.82512693418792     -0.05484798808521
  C           1.77473830941357      0.19752426775686     -1.15750669699744
  H           3.71778252182855     -0.21328789137083     -0.58649206458706
  C           2.18604789799581     -1.32751657675803      1.35981580772133
  C           3.26883571104828     -1.25167567205001     -2.44320693352515
  C           2.12089041424749     -1.92559666704659     -3.14008750548291
  C           1.44889649657050     -1.37328040768492     -4.13169194827909
  O           2.26155334521009     -2.97879998039096     -0.33985691850386
  C           4.46378697383809     -2.19951425325709     -2.33934367332449
  H           3.57618796923343     -0.37151438033286     -3.02042892094671
  H           1.85555303842878     -2.90186664268740     -2.76145294772628
  H           0.62064719710195     -1.87432354884017     -4.60114948553182
  H           1.69342510977400     -0.39518261006789     -4.51296522050090
  N           0.90258086517909      0.92416005862981     -1.27883247048143
  F           2.67963659760587     -0.07264187319505      1.57460728092535
  H           2.65707290960522     -2.00304603035093      2.08223551410873
  H           1.10484145111471     -1.29484089577073      1.54394887277345
  F           5.52085048334388     -1.56121598742401     -1.73335025184587
  H           4.80085894001901     -2.50229894207853     -3.33512973622489
  H           4.23225077427990     -3.08173972911615     -1.73678422809311
