20
Coordinates from ORCA-job NEB E -47.579531874590
  C          -0.00075657282767      1.08452714867250      0.23574348092973
  C          -0.68490506293435      0.37712073994258      1.30500187304283
  C          -0.84374667291004      2.05755763835613     -0.41005329474519
  H           0.91633316871631      1.55960780650766      0.60281880708756
  N           0.09167202269017      0.09117897097642      2.50948838888903
  C           0.34890475822117     -0.04766380582912     -0.99035212739422
  C          -0.41958008554271     -1.25942300483180     -0.77929470217500
  C          -1.77537254510505     -1.05267871006023     -0.41570695264891
  O          -1.65929252159843     -0.40106981505291      1.05387992241113
  C           1.84666219015448     -0.26806425443918     -1.10978299006055
  H           0.00515469284453      0.49323237523873     -1.88045790641131
  H           0.08668628531595     -2.11427699043390     -0.34844585229999
  H          -2.37445742738769     -1.93284704298669     -0.21662841595893
  H          -2.31751380669970     -0.29018434957719     -0.97306951259893
  N          -1.52164551715389      2.81212181960671     -0.93318348447029
  O          -0.29636132715236     -0.80981403863850      3.21308199760245
  O           1.03137723151317      0.83210382138804      2.72796043044739
  Br          2.18404697618088     -1.46945815767803     -2.62511231033203
  Br          2.78442140324479      1.41518665619057     -1.47480425697039
  Br          2.59837281043043     -1.07715680735181      0.50891690565562
