20
Coordinates from ORCA-job NEB_reactant E -47.622769259380
  C           1.95722568501495     -0.25960478218824     -0.31971722886722
  C           1.56835298814868     -1.43929105844758      0.19334484297023
  C           1.99586337262578      0.09867696459362     -1.67211862396334
  H           2.26224950959059      0.50961634637355      0.38006708272154
  N           1.58532595658711     -1.58087934609651      1.66849863509550
  C           2.94291253834842     -2.45285608684854     -3.44624899176475
  C           2.53342104588977     -2.93132364788654     -2.28291095678166
  C           1.14320254065444     -2.74553308877161     -1.75508153941384
  O           1.13540673296028     -2.56986311825810     -0.34796196898391
  C           4.29263284344976     -2.61337136740634     -4.02707341897343
  H           2.27856516472756     -1.86741025607319     -4.07076813446123
  H           3.18381629683989     -3.51089995255710     -1.64054922928761
  H           0.57132659591779     -3.66768509715008     -1.90720632519626
  H           0.63028543449824     -1.91807889177367     -2.25602309867317
  N           2.03580768504722      0.42405518920993     -2.77225918662227
  O           1.27498333477564     -2.65473292463156      2.10848122347934
  O           1.90837689038465     -0.60827693455680      2.30659800592394
  Br          4.13938318723765     -3.48123216496781     -5.78855925569252
  Br          5.09382871513669     -0.82998427992540     -4.28713977876479
  Br          5.51843348216487     -3.66562550263803     -2.95297205274455
