19
Coordinates from ORCA-job NEB_reactant E -41.728291515040
  C           1.91528228075178     -0.03160547773957      0.15962801463968
  C           1.55359449162661     -1.32456621438276      0.25775790857087
  N           1.93006288811260      0.65826587429805     -1.01667624799109
  H           2.25937276034401      0.50064659094633      1.03242307087941
  C           1.65173652299548     -2.07109791773856      1.54946359338757
  C           3.56789536786294     -4.45490008939356     -0.77131921174206
  C           2.36120067195736     -4.06469982696557     -1.13343201217289
  C           2.06480607304895     -2.68570374708718     -1.63331705584126
  O           1.08152728490198     -2.00503534487530     -0.84677770113297
  F           3.81024414670214     -5.70138645903066     -0.34542130693462
  H           4.46549238749039     -3.85269887358764     -0.79169723996942
  H           1.52518837118804     -4.74416748866165     -1.06525134935446
  H           1.61396341217338     -2.75266062502231     -2.62917572474603
  H           2.98295518313443     -2.08931026121994     -1.68615316042426
  H           1.42245337685080      0.22399650997472     -1.77344176912775
  H           1.85702571647310      1.66013502035961     -0.96524184656897
  Cl          3.35988367909761     -2.56551913234707      1.88516376865402
  Cl          1.14612447115798     -1.05835465261859      2.92417404172877
  Cl          0.65419091413043     -3.52443788490834      1.53749422814547
