22
Coordinates from ORCA-job P E -44.055139686230
  C          -1.36546089661018      0.41917188929401     -2.39550238244706
  C           0.01057085965082     -1.59235780688961     -1.13497903729708
  C          -1.29603057830233     -1.92114932087668     -1.78343401501474
  C          -1.96523135114454     -0.95872589035073     -2.39689238381816
  C          -0.93007748962110      0.79809892531454     -0.96513761373617
  C          -0.12896159065824     -0.31954799889431     -0.26772424767926
  H          -1.66360392481162     -2.93219934658733     -1.73324092360826
  H          -2.91520397702537     -1.10860768431458     -2.88190970939734
  C          -2.35321539982323      1.44752626430682     -2.92324453190805
  H           0.36137567821098     -2.41338029737263     -0.51126805081253
  H          -0.50637481061981      0.44776196150512     -3.08014273967016
  H           0.76164046196472     -1.42664956986143     -1.91625346626562
  H          -1.83512640855009      0.99245307881561     -0.38698691228658
  H          -0.63763845388619     -0.60474779007480      0.65594623903993
  H          -0.36372176412329      1.73306107649090     -0.99096621846424
  C           1.27357315380168      0.12795918242565      0.13700139733434
  F          -2.73366708051738      1.18136041783248     -4.18128145802403
  F          -3.47110944282414      1.51955116488848     -2.19030444061634
  F          -1.82541041403477      2.68388532864066     -2.94081158929707
  O           1.72513663327935     -0.03894063689870      1.23014242784735
  O           2.00062258012495      0.69944893576183     -0.83564956052836
  H           1.51544421551978      0.77534811684469     -1.66812078335060
