22
Coordinates from ORCA-job R E -43.966313091060
  C          -1.19478786283282     -0.25483717628788     -2.92079115878389
  C           0.33135517145042     -2.77209389327941     -2.30894704319033
  C          -0.96463266587880     -2.56999458704937     -2.09871017077680
  C          -1.62441957755137     -1.28345444811715     -2.19011645610615
  C          -0.82187989179394      2.34443884962631      0.45083767503907
  C          -0.73129649664001      1.02365145426303      0.50835185993955
  H          -1.59758401916028     -3.39051347680619     -1.78971684868980
  H          -2.53750289779480     -1.17732235214302     -1.61759923450141
  C          -1.88332583352022      1.06306775372601     -2.95166099917110
  H           0.77072404045764     -3.74756082854763     -2.19733340655719
  H          -0.31281050474170     -0.29964291892222     -3.53966310647567
  H           1.00249860938215     -1.96776066060130     -2.55368415633830
  H          -1.63038490044538      2.86843890634920      0.93133753659116
  H          -1.45286017166030      0.43887822059896      1.06021542079840
  H          -0.10520574895495      2.97158638534057     -0.05813657452608
  C           0.35130102498922      0.19898105594209     -0.08727024980125
  F          -2.36815639254855      1.37645392624583     -4.16595032224036
  F          -2.90789232925728      1.16740860668284     -2.09367576777055
  F          -1.03509153400574      2.07566094369537     -2.63196973056070
  O           0.54287761226833     -0.94127726809059      0.24242052027570
  O           1.11841342765028      0.77691464374363     -1.02610490717490
  H           0.82968094058809      1.67710686363088     -1.23236287997939
