22
Coordinates from ORCA-job TS E -43.951161219990
  C          -0.69103653416208      0.32224408007806     -1.14698185392754
  C           0.78056745556960     -1.86313881877755     -0.00663226371043
  C          -0.53953261975513     -1.94418503694488     -0.29044155268184
  C          -1.26510059955622     -0.88459721330908     -0.88308670374858
  C          -0.18595757757546      0.94994595907766      0.97776752146027
  C           0.56822200893157     -0.02805861845436      1.54629373507203
  H          -1.11542396958506     -2.77281249128003      0.09554663330255
  H          -2.34236253153405     -0.96791755866885     -0.92121221005419
  C          -1.51920010494446      1.45707233714322     -1.65826829147891
  H           1.26815216693753     -2.62752812808653      0.57406612447544
  H           0.35760650130017      0.42000918196958     -1.37607691568105
  H           1.43860543847225     -1.19436171826777     -0.53199884331250
  H          -1.23293054343468      1.01887193269530      1.21942315880569
  H           0.10589032590938     -0.75555252485860      2.19480846042528
  H           0.24518853124872      1.85319588497411      0.57273066660258
  C           2.04933118912553     -0.03186821076984      1.62084681873765
  F          -1.82661176436824      1.32934079840269     -2.96303352367672
  F          -2.68453137792338      1.59060104077016     -1.00831034383805
  F          -0.87749909065061      2.63438061312245     -1.54215745186986
  O           2.65548273673637     -0.77106257903950      2.34723386728207
  O           2.70480502541900      0.83849685350501      0.82908680876312
  H           2.10633533383922      1.42692421671875      0.35039615905302
