21
Coordinates from ORCA-job NEB E -43.894268581940
  C           0.24880293165959     -0.48237766739578     -0.81000001803903
  C           0.20373686801115      0.69719215830930     -1.57223728234236
  O           1.43667452788110     -0.90703709929809     -0.28713001088621
  H          -0.43212627023691     -1.27771909819735     -1.11416697280623
  Cl         -1.30873029043758      0.86649637150785     -2.49721213449535
  C          -0.51332132823206      0.33662090809284      0.93492391098969
  C          -0.70163091309434      1.69833551179168      0.71057382294544
  C           0.40371661891233      2.44701891913957      0.29405040287775
  O           0.81032856190053      1.74954237543924     -1.29454395634348
  C          -1.66616176378138     -0.51096877294966      1.35316914249418
  H           0.41654944141100      0.05567970280437      1.42304313320994
  H          -1.69346045336431      2.05845201325957      0.46565352264431
  H           1.36700369850160      2.22403561880798      0.73250805349831
  H           0.25524688865612      3.48212794254839      0.02544486841767
  C           1.85863927285892     -2.18674288089046     -0.72375363471709
  H           2.73360682811158     -2.43199534875351     -0.12627790455174
  H           2.12966388667474     -2.16547285126880     -1.78289136435031
  H           1.08099900722916     -2.93880523471076     -0.56070248613692
  Br         -2.24255211660334      0.04667957196704      3.16798917126703
  Br         -3.20608242072474     -0.36979575886325      0.17253476251493
  Br         -1.18090297533315     -2.39126638134018      1.48902497380946
