21
Coordinates from ORCA-job NEB_product E -43.946385395650
  C           0.43128993159337     -0.28892939179968      1.66484092938357
  C           1.01710255721648      0.70516370070818      0.66411531464998
  O           1.41524647005841     -1.17659743642547      2.10744353579546
  H          -0.41164221980467     -0.81938698142949      1.19193839057853
  Cl         -0.12756279788790      1.13961013570291     -0.60393848917970
  C          -0.04062266425464      0.52945061484187      2.88872458068856
  C          -0.75798517886421      1.78018751337809      2.46098537315074
  C          -0.32308861575576      2.99565233157892      2.73415685624687
  O           2.10521435495036      1.16494887710961      0.68426312580231
  C          -0.92502168984302     -0.29509700540421      3.81370014057144
  H           0.86661196769089      0.79296195034981      3.44799603324259
  H          -1.67726232386321      1.62821126892860      1.91102902503116
  H           0.58991752342045      3.16794428384721      3.27988669591504
  H          -0.86539911533020      3.86860766612268      2.41695222006818
  C           1.80456178130790     -2.14626768918951      1.15826683770479
  H           2.50191041787676     -2.80016071730884      1.67595141394920
  H           2.29914341527076     -1.68617480562247      0.29805854057493
  H           0.94134658458957     -2.72658620877056      0.81424445429383
  Br         -1.46169677116571      0.81255806028204      5.33226912711391
  Br         -2.55252744329834     -0.89297112655624      2.92437007143316
  Br         -0.03303618390730     -1.86142504034347      4.53004582298545
