21
Coordinates from ORCA-job NEB_reactant E -38.091131507080
  C           1.88264798476873     -0.52401514106541      0.13397619359489
  C           1.49409906473086     -0.23932088055924      1.39131238643745
  C           1.92324804743443     -1.76460626587450     -0.50999819285898
  H           2.19236643103087      0.29688191181848     -0.49790827754810
  C           1.48396317550234      1.17263880801059      1.89577622101457
  C           3.25453419074041     -3.78040299586169      1.67212385968912
  C           2.59933974981164     -2.92972097893512      2.44253619276399
  C           1.18648704241835     -2.48268553801040      2.21044757078813
  O           1.06371349980179     -1.07754198552315      2.35372045777666
  C           4.66542142858822     -4.21020708091683      1.93871289718575
  H           2.82520564107419     -4.19800032736754      0.77354607018371
  H           3.06943655209343     -2.50265756138085      3.31904349550541
  H           0.54616713246337     -2.88903863663499      3.00169581923014
  H           0.81331703281024     -2.82041135771990      1.24018897135867
  N           1.95691761990909     -2.74899953436795     -1.10437849508747
  H           2.34190993246645      1.33157974005962      2.54851933826615
  H           0.58528209176910      1.33888908267919      2.48544157642535
  H           1.52462641157167      1.88637709571224      1.07963523087574
  F           5.50431299750763     -3.73020167814156      0.98367718153753
  F           5.13453770008293     -3.73501359195776      3.11876369222949
  H           4.78016627342424     -5.30734308396323      1.95186781063179
