29
Coordinates from ORCA-job R E -44.336532389990
  C          -0.79393069364919      0.23976647686554     -2.83432464697433
  C           0.26615814479538     -2.39237910885879     -1.81074661703606
  C          -0.97405513383623     -1.93840279647358     -1.66136334603558
  C          -1.49186338513466     -0.68684878543318     -2.17969283655805
  C          -1.37241483492000      1.12878940104451      0.68992376101073
  C          -0.44741595712995      0.21499538515014      0.95837842668146
  H          -1.68989147536686     -2.53131040434209     -1.10761874647228
  H          -2.54569318950156     -0.51249345865523     -2.00009870774877
  C          -1.40590073486907      1.50970498072953     -3.31973958125518
  H           0.57145801979365     -3.33493487280531     -1.39129898223025
  H           0.26057853463042      0.13967279589786     -3.03636086895015
  H           1.01939849204171     -1.84846679292984     -2.35259368356224
  H          -2.33034472353335      1.11459393030336      1.18168376448349
  H          -0.67205798382096     -0.56251776546279      1.67924441080315
  H          -1.21882080232232      1.92352737266889     -0.01905835095393
  C           0.87960729136842      0.11921243973674      0.36380858190092
  F          -0.87987912406021      2.58737181257119     -2.66951925828452
  F          -1.13261576315901      1.71655658551141     -4.63536723967847
  H          -2.49893168882574      1.55254003668343     -3.19315845339096
  C           1.39294644691331      1.08199473482618     -0.50584131456034
  C           2.65019029368073      0.93252835376648     -1.05925377279312
  C           3.42467414398098     -0.17504263316252     -0.75374975955677
  C           2.93409809560450     -1.13252400634251      0.11844892757493
  C           1.67608160816438     -0.98568390943020      0.67006481541771
  H           0.81005116928690      1.95588922014662     -0.74878953662857
  H           3.03058945594583      1.68665368874937     -1.73315438070730
  H           4.40696676427331     -0.28798066703699     -1.18874722512363
  H           3.53489968689835     -1.99522248717442      0.36804230159529
  H           1.29791734275125     -1.73738952654383      1.34894231903282
