29
Coordinates from ORCA-job TS E -44.322798095680
  C          -1.73902289223319      0.50346631331330     -1.42797353972730
  C          -0.47070517679322     -1.93542256044731     -0.59708822963730
  C          -1.78658430722516     -1.86412193082408     -0.88812266805058
  C          -2.41354651736902     -0.68176296092468     -1.34630554444936
  C          -1.29138916348550      0.84971180029036      0.67197448402070
  C          -0.45039529189487     -0.12370625361473      1.12646829885889
  H          -2.43416845083199     -2.68899190407496     -0.62329238765188
  H          -3.49296559536375     -0.67677411092642     -1.41322690275802
  C          -2.46276388574419      1.74157175454268     -1.86323020265608
  H          -0.05816393558934     -2.81053824537034     -0.12375619851858
  H          -0.68130820577605      0.52092428031069     -1.64032742239941
  H           0.24717677308771     -1.24575293383163     -0.99797034199744
  H          -2.32782518150250      0.82450109335529      0.96518596071235
  H          -0.86036198090693     -0.94244785801755      1.69986565400435
  H          -0.90756139814513      1.81945661670990      0.40727958609621
  C           1.00221839632269     -0.03930375891221      1.10137663485721
  F          -1.72931787515535      2.85780860396761     -1.62246430542882
  F          -2.67111790887966      1.73193357782952     -3.21185062696285
  H          -3.44580560603857      1.87586754797779     -1.38503003510316
  C           1.69146436513210      0.90748368188651      0.33950711474578
  C           3.07193725109626      0.95616983263248      0.35317004655331
  C           3.79781315786474      0.06622355749994      1.12785071601147
  C           3.12952092571377     -0.87862270913516      1.88958788297555
  C           1.75014598462658     -0.93333783580254      1.87216298452344
  H           1.14731716820715      1.61210712237960     -0.27116106547811
  H           3.58673117596704      1.69433498031887     -0.24464246506946
  H           4.87672362021382      0.10876815740452      1.13762705510528
  H           3.68802622531320     -1.57612208406984      2.49693388762513
  H           1.23392832938935     -1.67342377446761      2.46745162979869
