17
Coordinates from ORCA-job NEB E -40.418303044900
  C           0.98315005811035     -0.18703224462208      0.87037769499981
  C          -0.42439340592746     -0.13287779633734      0.98699883866784
  F           1.65800328657057      0.88165717589817      1.33855908268145
  H           1.50869296855148     -1.09895003952374      1.15158259430068
  C          -1.23912118823103     -1.36879467728088      1.07068882867773
  C           1.24000913613844      0.03843268552609     -0.95523455351511
  C           0.60265134796687      1.26212470090551     -1.18055966873010
  C          -0.80622128461012      1.34406357907768     -0.89272632307880
  O          -1.03878547111514      0.95904930749710      0.59260828006954
  Br          3.13506496444454     -0.04661623382617     -1.24773650191689
  H           0.78040748868778     -0.87734449501016     -1.31573715752193
  H           1.19078135411558      2.16771614939826     -1.16824816683770
  H          -1.42282640075711      0.61912538111021     -1.42720637017290
  H          -1.22523068388652      2.34342697612531     -0.95421125938343
  Br         -0.51883519559819     -2.67040366675852      2.30787907678398
  Br         -3.05068002364181     -0.91706145018958      1.57144997449359
  Br         -1.37266695081824     -2.31651535198987     -0.74848436951777
