17
Coordinates from ORCA-job NEB_product E -40.451375147440
  C           2.07912906298324     -0.65784756338942     -1.81527710452001
  C           0.83131111387183     -1.53266875714568     -1.95468899763320
  F           1.78916622502990      0.32973108826397     -0.90410374861573
  H           2.94640713817966     -1.20355709282445     -1.42482152307202
  C           0.90896062171547     -2.92728118993456     -1.36766789957186
  C           2.37616934200721     -0.00847559718431     -3.16541609726379
  C           3.63810666241357      0.77694042888907     -3.16366565975504
  C           3.69437756776949      2.04809920311085     -3.51616726195975
  O          -0.19188687690449     -1.12407576325552     -2.41625263631951
  Br          2.49034764830409     -1.49329706532323     -4.46860622230943
  H           1.51603575743906      0.59205320098947     -3.47143603547857
  H           4.52280233219658      0.23379485061433     -2.85984932366463
  H           2.81859495368886      2.59354705980656     -3.82687362566712
  H           4.62102438723823      2.59373080112415     -3.49971711813810
  Br          0.85797742202695     -2.58886888231934      0.56857402047447
  Br         -0.63364187772472     -3.95012920524105     -1.89787437650776
  Br          2.52171851976506     -3.89699551618083     -1.79965638999795
