21
Coordinates from ORCA-job NEB E -41.280178962180
  C           0.58155460988552     -0.80043991464923     -0.57230664142783
  C          -0.77829084615164     -1.10795045566648     -0.51288104155500
  H           1.23804520424623     -1.47519309726683     -0.04723604679167
  H           1.00029655257447     -0.39418799979757     -1.47920278253027
  O          -1.70951661960621     -0.59601156781629     -1.36206711937406
  C           0.56821810586215      0.63791385345114      0.76889161960930
  C           0.02273719098318      0.02000181959283      1.89648059295736
  C          -1.30550265850006     -0.48414227369901      1.76832261479865
  O          -1.27015381800170     -1.58762488985277      0.58185857183121
  C           1.97621026734740      1.15646148002425      0.82920493009866
  H          -0.07443003224675      1.32506276671689      0.22555279599770
  H           0.69068439876069     -0.47437022370130      2.58517169849047
  H          -2.04839432779981      0.20761723202443      1.37810323002719
  H          -1.67908391437696     -1.06485129780312      2.60216507632970
  C          -1.28980632379489     -0.01180943220651     -2.57452188607975
  H          -2.20133714262398      0.19866136809241     -3.13114558246296
  H          -0.66234065648015     -0.69819938967241     -3.14972679309413
  H          -0.74585188981692      0.92174456581702     -2.40485673973441
  Cl          2.04210947917965      2.53552870245078      1.97107962442556
  Cl          3.13019317342636     -0.06712554347554      1.38223177926252
  Cl          2.51465924713340      1.75891429743732     -0.75511790077821
