21
Coordinates from ORCA-job NEB_reactant E -41.306462735000
  C           1.26722809238776      0.00985922301453      0.32607822754718
  C           1.65410364251096      1.20974622045525     -0.09533647508721
  H           1.54372304641420     -0.39715422823394      1.27637464610500
  H           0.64770139362883     -0.58657196541265     -0.31266742141785
  O           1.26465899034836      1.65746383759878     -1.31215648796830
  C           3.99420305283473      3.98111851862349      1.80771484161380
  C           3.73748584761223      2.84051089032102      2.42862528850745
  C           2.90125898921924      1.74666281341761      1.84985644000730
  O           2.43803387791767      2.10596371854548      0.57301565728478
  C           4.81734834764234      5.09297720058406      2.34207932263518
  H           3.59296074157114      4.16941302735385      0.82275362925631
  H           4.12845773615263      2.63153866415823      3.41356669043202
  H           2.05281236938477      1.54935353176280      2.52285343455603
  H           3.50366799759568      0.82702160399747      1.79344460243499
  C           1.69998964175158      2.94040450969339     -1.71348374150734
  H           1.27547367268926      3.09187737842425     -2.70387368049126
  H           2.79076212299584      2.99160773957227     -1.76683031105173
  H           1.33654090938212      3.71477188946195     -1.03270782303018
  Cl          3.82328973755826      6.57965567736488      2.42020816257726
  Cl          5.47756290207642      4.78785301636430      3.95374537877397
  Cl          6.18473688832596      5.40412673293298      1.23003961882261
