16
Coordinates from ORCA-job NEB E -31.020530582420
  C           0.55388817101679      0.59708527394173      0.18533223622064
  C           0.58389220815663      1.53516263355297      1.26236421009911
  C           0.64935155230183      0.96124448984694     -1.20180217826519
  H           0.61207423517813      2.04023285248482     -1.38033705283231
  C           0.66209730286976      2.92633469437851      0.84230508121481
  C           0.28129249040857     -0.82237648480389      0.40363787907056
  C          -0.76065852028716     -1.40197910480189     -0.47338422949475
  C          -1.77082529446718     -2.17248009561292     -0.13262621491972
  O           0.58784650551893      1.21867514269608      2.44567828314909
  I           2.13631862544471     -1.90530960486243     -0.28868391090048
  H           0.15236919487751     -1.04955668994658      1.45985412227335
  H          -0.55789921260886     -1.10515665143307     -1.52097184958734
  H          -1.92506879128142     -2.49507538411287      0.88477708720438
  H          -2.48556034380862     -2.52052884831558     -0.85782075151409
  N           0.61688500560412      0.16916131076774     -2.14574055380265
  N           0.66399687107628      4.02456646622043      0.51741784208459
