19
Coordinates from ORCA-job NEB E -43.069212276080
  C          -0.82321617628112     -0.21546844767777     -0.82580584653080
  C          -1.39844064655069     -1.33346424098150     -0.11089708985650
  N           0.27709434938817     -0.72468334908285     -1.67379991999124
  H          -1.52973159499183      0.33132772183245     -1.45066671415618
  H          -2.47276476000273     -1.48413024832980     -0.10760169613362
  C          -0.10053866949614      0.75808214293970      0.32778979340159
  C           0.84271801590719     -0.09551306131763      1.01588090865118
  C           0.31055861560900     -1.25822007008191      1.64526047306544
  O          -0.67672975839210     -2.04322782028525      0.67627893191295
  C           0.48322525199495      2.03959238083954     -0.24089134189493
  H          -0.96017667027010      1.04536621508104      0.94294500191021
  H           1.88770705353973     -0.06350840151883      0.75821450659341
  H          -0.39957119212140     -1.08700419106385      2.45285498810016
  H           1.05108089059921     -2.00262882404766      1.91635704880321
  O           0.15471201613899     -0.54622317392586     -2.86305068182676
  O           1.15866779847447     -1.32703751910118     -1.11052465176049
  Br          0.98955698617158      3.18281425685487      1.27852747833408
  Br          2.06175225834890      1.79585636037941     -1.35339413702195
  Br         -0.85590376806608      3.02807026948705     -1.27747705159976
