19
Coordinates from ORCA-job NEB_product E -43.104975640660
  C           2.26940783551890      1.95881527847234      1.14943234687868
  C           0.93090111796492      2.46995142155247      0.58795841896271
  N           2.19406675920795      0.47453116314977      0.92646582671665
  H           3.11409285264353      2.32542387526661      0.55859623692262
  H           1.00315335349338      2.89087073566192     -0.42624900883114
  C           2.39708470125985      2.26784155620401      2.64786494017239
  C           3.32942151498546      1.31240158795674      3.34675152317738
  C           3.04880539650422      0.74868954149188      4.50626459243650
  O          -0.09741340690798      2.35285802941993      1.17926443016403
  C           2.89568358266354      3.69741939849630      2.85167319188804
  H           1.39719041515382      2.19129342439413      3.09817220003952
  H           4.27163530664402      1.12702862273890      2.84786108284323
  H           2.11360628002842      0.91697110297554      5.01348123875740
  H           3.74473602695414      0.08516271707640      4.98739266913318
  O           2.67672895110541      0.08119357018592     -0.10134710986148
  O           1.63561473277980     -0.18042193652205      1.76043082132025
  Br          2.82626681910207      4.17020530362468      4.73732807994748
  Br          4.74036099735523      3.91599439949525      2.23947170906680
  Br          1.80395676354332      5.00337020835924      1.86528681026575
