19
Coordinates from ORCA-job NEB E -42.272440899720
  C           1.12410849355281     -0.25399252594281     -0.54417270918041
  C           0.48510794894647      0.23786570324808     -1.67182522378274
  C           0.92967684605058     -1.67179403441637     -0.13385537328869
  H           2.12232802310977      0.10373171409522     -0.33042954224593
  F           1.10564898850122      1.36029572766007     -2.19071407083440
  C          -0.14036043194572      0.86826284927571      0.92573792797821
  C          -1.37109246961856      0.41473674476433      0.43198553962757
  C          -1.85557471334085      0.84144687780614     -0.78376533563259
  O          -0.65964298442958      0.01433528981819     -2.05291863772473
  N           0.29667504134879      0.53595880596200      2.15874392948479
  H           0.26324852898471      1.79664045199565      0.54015126940370
  H          -1.81037752012338     -0.45514800614044      0.89849537787903
  H          -1.59513104471174      1.81903966261550     -1.15949641370921
  H          -2.76771754287868      0.42062852019976     -1.17066003640131
  F           1.72437114078618     -2.51232206157394     -0.82831531995311
  F           1.27023175921090     -1.86429325143138      1.16427624813815
  F          -0.31110621676347     -2.14550228780444     -0.25733270135602
  H          -0.02805455144983     -0.33136625145669      2.55824570541319
  H           1.21766070477037      0.82147607132543      2.44584936618448
