19
Coordinates from ORCA-job NEB_product E -42.299240495420
  C           1.60851197956495      1.10201608894188      1.97603168131144
  C           1.45000322168070      1.51433084140893      0.53987223623559
  C           1.22132477965723     -0.36596315297003      2.13773487363874
  H           2.66339399773852      1.19807594245015      2.26059945568547
  F           2.08115484670641      2.70366479195274      0.33791859489730
  C           0.81019722188923      2.07905062476983      2.90738066537767
  C          -0.66203736687834      1.75303492285883      2.89820547089002
  C          -1.54742868494478      2.39471272058567      2.16039256768109
  O           0.88147195463747      0.99705537000822     -0.34859712417591
  N           1.43360047520432      2.05875136305259      4.21553604634973
  H           0.96221000347498      3.08543827587719      2.49864537887086
  H          -0.96468602676070      0.95272702476084      3.56060667558431
  H          -1.26188881691115      3.19461771785113      1.49658646268118
  H          -2.59279294439662      2.14270382024285      2.18338662280242
  F           2.08620198138367     -1.15738410608391      1.48807307150443
  F           1.24912161357579     -0.75716499979645      3.42149253396589
  F           0.00448397428736     -0.66410019693874      1.68261336492187
  H           1.24087681172295      1.19264284714722      4.70659789057049
  H           1.09328097836801      2.82559010388106      4.78192353120740
