23
Coordinates from ORCA-job R E -28.236255573060
  C          -1.37149286821212     -0.21021344280549     -3.03892443673154
  C          -0.36900144750000     -2.61151310916519     -1.47742274593868
  C          -1.59201168023291     -2.09279188042831     -1.43101277837660
  C          -2.07766905193767     -0.95450242620120     -2.19012624578809
  C          -0.67687782947766      1.48930030801817      0.53810701201902
  C           0.16163625453090      0.59013608547527      0.05440360802368
  H          -2.32549934782347     -2.54450543079454     -0.77392463385371
  H          -3.12224173119340     -0.71208925951309     -2.03358812513355
  C          -1.92266162710430      0.95296109078088     -3.79546254760261
  H          -0.09720559938544     -3.46198849113409     -0.87569156689841
  H          -0.32389721480001     -0.41543020886643     -3.20671220747045
  H           0.40409070675724     -2.20667499287786     -2.10689112401364
  H          -1.34880431514044      1.24680622071260      1.33749584681189
  H           0.21343794004898     -0.42339839062825      0.42296227664833
  H          -0.71465902231530      2.49726864037062      0.15689790216632
  O           1.04953039716393      0.79048806966760     -0.94497835196373
  C          -1.18900296405545      2.24630276911946     -3.43762096707228
  H          -2.98780912132560      1.06710508560355     -3.58464527357380
  H          -1.80592420300140      0.76857803860106     -4.86806266031825
  H          -1.32642135607687      2.47006546344635     -2.38201255613979
  H          -1.57539179985207      3.07916649685829     -4.02089763309486
  H          -0.12475581412815      2.14723889387201     -3.64282105002174
  H           0.95845169506122      1.69305046988859     -1.27827174167749
