23
Coordinates from ORCA-job TS E -28.215791561540
  C          -0.44000150122207     -0.07323610661134     -0.72386027725392
  C           0.86770732597970     -2.20328030626683      0.67923495468043
  C          -0.44948425405074     -2.24948713206995      0.35385798124818
  C          -1.09077147803664     -1.22126225258174     -0.36140080282118
  C           0.09724307364265      0.62589298041704      1.30018449299619
  C           0.93290664935501     -0.24939790650705      1.92796716246363
  H          -1.07809033054437     -3.00268630778740      0.81066053432899
  H          -2.17126000997722     -1.24447514123630     -0.41735909345788
  C          -1.17940102991527      1.06304522058025     -1.37862357383223
  H           1.29573617011532     -2.94754878484101      1.33044768214416
  H           0.61658303540460     -0.11485170925073     -0.94076713202104
  H           1.57875788595063     -1.66499087615103      0.07965189408640
  H          -0.93355355478855      0.66700115820985      1.59440296145587
  H           0.60731510054020     -0.91076358606474      2.71198972114640
  H           0.50442665329784      1.51236013827379      0.84458662415149
  O           2.29334497506671     -0.11550849075097      1.91711195128879
  C          -0.25589820232410      2.14392960691823     -1.92852904172610
  H          -1.88087721890036      1.50684242167682     -0.66713443978764
  H          -1.77763282385857      0.66006340244176     -2.20206541985944
  H           0.31542152487405      2.61570855188589     -1.13182521237296
  H          -0.83325921971163      2.91735433069021     -2.43011698418201
  H           0.44224554503898      1.71943390960395     -2.64723049067864
  H           2.53854168406386      0.56585687942128      1.27881650800251
