20
Coordinates from ORCA-job NEB E -33.362996941960
  C           1.10055977231623      0.33960303786935     -0.50851442579376
  C           0.43360109224264      1.45037616609549     -1.01701950744323
  C           1.09532776709109     -0.92391589914228     -1.32914082066488
  H           2.03646218766508      0.53322029320391      0.00397720254680
  Cl          0.88257571870078      3.01869953517889     -0.31911750341285
  C          -0.18759720410402     -0.01621772467032      0.97309206127505
  C          -1.39837128641103     -0.10578638336347      0.29845501384298
  C          -1.87250227899021      1.05022912460575     -0.38494565518083
  O          -0.73720910665058      1.37041614583409     -1.51607704194928
  C           0.34808503144365     -1.21707138453455      1.71076950522600
  H           0.02209365458972      0.91090716402770      1.49875975753070
  H          -1.74324729630599     -1.07570318609872     -0.03037445768864
  H          -1.85548078700137      1.98244346255435      0.17408577098966
  H          -2.76742795668057      0.93564219510226     -0.98344473540751
  H           1.33887297249637     -1.79050106346625     -0.72209020703887
  H           1.85039942063308     -0.83746533811114     -2.11004725199814
  H           0.12979861901920     -1.06949860159947     -1.80468074881304
  F          -0.10653674887177     -1.18436092865801      3.01061682747086
  H           1.44111662685081     -1.21312224044213      1.77379256804855
  H          -0.01052019803310     -2.15789437438548      1.28190364846044
