20
Coordinates from ORCA-job NEB_reactant E -33.387360169420
  C           1.75147468785932     -0.08465226504906     -0.01774503697751
  C           1.24900157238507      0.35200262507483      1.13046973999660
  C           2.09536579812776     -1.51559636614721     -0.27309055716587
  H           1.94344543875640      0.62218475875987     -0.80832227703708
  Cl          0.86619877404336      2.04947545426626      1.31774358000181
  C          -0.21356996016802     -1.21991544510876      5.33281816227289
  C          -0.19518493233075     -1.27951440619157      4.01255008123625
  C           0.02480284970280     -0.09810683965156      3.12412721329345
  O           1.06109315753763     -0.43079293333684      2.20663499217240
  C          -0.45495238744797     -2.38980714268411      6.23115886711336
  H          -0.06354313406374     -0.28770834299071      5.85981016830345
  H          -0.33668781213896     -2.22092737475025      3.50196079301229
  H           0.30855774017741      0.78475169224274      3.70998622637273
  H          -0.89892480751668      0.12774066053541      2.57219751992711
  H           1.78387935422899     -2.13448370152456      0.56244267008261
  H           3.17065812730785     -1.62448765218428     -0.40930145239655
  H           1.60673757363727     -1.86017669261729     -1.18328274494391
  F          -0.68272585903700     -3.54499668674769      5.52988896836671
  H          -1.33769317837483     -2.22286050558406      6.86174062403906
  H           0.41616699731410     -2.57392883631116      6.87281246233022
