20
Coordinates from ORCA-job NEB_product E -33.409716628790
  C           1.51637827798413     -0.74301683918557      2.18919080684576
  C           0.92604261719287      0.30300141276995      1.28583303008353
  C           1.61734776511328     -2.06449696059259      1.42985183714162
  H           2.51658040087614     -0.40919739563178      2.48519226610249
  Cl          1.11405009504298      1.93726345446481      1.94583798388902
  C           0.64435247055981     -0.81424996588621      3.46987041888309
  C          -0.79038430616078     -1.12339622720887      3.14685386806571
  C          -1.77280646785418     -0.25278837915016      3.27342305005181
  O           0.37917900201659      0.15454708321828      0.24798459668235
  C           1.21296765597806     -1.84000000889035      4.45404578389557
  H           0.69061513207211      0.16373689529807      3.96018246063605
  H          -0.98963614581547     -2.12946350177068      2.80459394098545
  H          -1.60139667698974      0.75195215041048      3.62319435901831
  H          -2.79082655184060     -0.50653103152966      3.03454176831170
  H           0.63558481690037     -2.40017799778404      1.11035822070778
  H           2.07576815711604     -2.82847737072235      2.05045950978391
  H           2.22885592553402     -1.92934830915035      0.54100640297058
  F           0.67044286105737     -1.63390421279642      5.69626805847508
  H           2.29742053953672     -1.73094004773143      4.56517183544136
  H           0.96066443168031     -2.86691274813115      4.17243980202883
