26
Coordinates from ORCA-job NEB E -35.494088360160
  C           0.17473060542360     -0.01440339471909      0.66473956801902
  C          -1.24010803685437     -0.51419232018227      0.92193255996263
  Cl          0.55174919567061      1.23779837881716      1.88221590379243
  H           0.90723267379447     -0.81221359189690      0.80168276681318
  C          -1.42049430218913     -2.00070340790013      0.70284906108403
  C           0.22314000773153      0.50931605612682     -0.79083003857702
  C          -0.39547894893436      1.87299197835364     -0.88861812571578
  C          -1.61722851662840      2.08914008893400     -1.33610880281294
  O          -2.13332763050051      0.21289477519655      1.26070631560345
  C           1.63391658746465      0.45605986789152     -1.40121378581360
  H          -0.39881911843240     -0.18469519528216     -1.37318368274337
  H           0.21929334836837      2.69456458667884     -0.55282322083629
  H          -2.25409371991184      1.28528473409729     -1.66865031560207
  H          -2.03841319686319      3.07831170113913     -1.38165897477513
  C          -1.07523159755419     -2.73504387151507      2.00152632207306
  H          -0.77432306233172     -2.34883034537423     -0.10411065188536
  H          -2.46255481066888     -2.19337595413272      0.44492697128128
  H          -0.04168407562568     -2.55375635106469      2.28776736032552
  H          -1.21663784913653     -3.80514919707084      1.87273455159229
  H          -1.72050267744707     -2.39306815576676      2.80672931087418
  C           2.69246151257572      1.32228693080576     -0.70698594740190
  H           1.53433930613577      0.76213562128136     -2.44462331176357
  H           1.95733429390705     -0.58749043790527     -1.40580629656757
  H           2.27327371522724      1.86697618437973      0.13124149874539
  H           3.11613642621724      2.04520080123265     -1.39890707460250
  H           3.50528987056203      0.70996051787571     -0.32553196106935
