26
Coordinates from ORCA-job NEB_reactant E -35.492689902790
  C           2.21457173248752     -0.48034397078127     -0.24020705053501
  C           1.51396997201922     -1.07783533014469     -1.20242480156005
  Cl          2.95574697589845      1.08750346071939     -0.24437075596439
  H           2.38417624766217     -0.99569922719789      0.68964124961077
  C           0.99013380104541     -2.47619501998766     -0.96175793057187
  C           3.87375315978223     -0.35788857332428     -3.30715101131693
  C           3.05355349825851      0.67656035855603     -3.24889930423978
  C           1.58393985291887      0.58355007228329     -2.95001377754676
  O           1.15729725197321     -0.66562386251097     -2.44001707293656
  C           5.34381545869008     -0.31886965598847     -3.58664202320665
  H           3.48482785434699     -1.35256597645315     -3.12871167119212
  H           3.39575558954213      1.68536652668422     -3.42202275311700
  H           1.01400448766778      0.69700680127308     -3.88100459558174
  H           1.28642621466352      1.39409541335899     -2.27431618245535
  C           1.90455270567877     -3.51905281128417     -1.60359089639187
  H          -0.00173752711809     -2.54363833999050     -1.41031124841714
  H           0.90699211212814     -2.66272298309229      0.10791940438753
  H           1.96342265145066     -3.35623394787006     -2.67661514434872
  H           1.51565310745091     -4.51887737312680     -1.42729656121952
  H           2.90545699805358     -3.45561478149181     -1.18300981248247
  C           5.92048953031427      1.07223577177369     -3.81058546360757
  H           5.53989965816955     -0.94178000450236     -4.46578908772742
  H           5.85929313761784     -0.79271248936936     -2.74469831392638
  H           5.45548276213231      1.54811503090274     -4.67071242479258
  H           6.99082535398844      1.00637625388173     -3.99293447832217
  H           5.75999741317752      1.69694465768255     -2.93527829253825
