20
Coordinates from ORCA-job NEB_reactant E -29.449983015610
  C           2.94214950763472      0.24246610924365     -0.20535744194446
  C           2.41764807497807      1.46354372496387     -0.24245906992346
  H           3.62535463836782     -0.07150676259444      0.55498615242057
  H           2.65924249166781     -0.46503162880343     -0.95876849690820
  O           1.53662738233801      1.78084904833115     -1.22808273281048
  C           3.67003694942910      0.41639747173348      3.30868726831434
  C           3.00333072513804      1.42720392657181      2.75776059708256
  C           3.55830808522953      2.30658999870025      1.68158088596338
  O           2.65874790277100      2.50094098879059      0.60126394491099
  N           3.23043797288416     -0.33123859473002      4.38227313989839
  H           4.67543558631306      0.17675196129273      2.98678364990463
  H           2.00254810821713      1.66859214231799      3.08601698518189
  H           4.51448929788334      1.91572476589492      1.31300588783191
  H           3.71625023643671      3.32288146372077      2.06257015812221
  C           1.02479122072163      3.09636271798056     -1.24902973735691
  H           0.35247973418399      3.13185860259706     -2.10433670390065
  H           1.82307097534643      3.83288249238553     -1.37337340299545
  H           0.47289086567488      3.32398980439096     -0.33321979129917
  H           2.24318522221582     -0.25302325026713      4.57615843554027
  H           3.57727502256872     -1.27563498252030      4.43394027196763
