20
Coordinates from ORCA-job NEB_product E -29.474711043560
  C           2.26523518835086     -0.00118367155019      0.96754514992151
  C           1.73132234432555      1.14570612069025      0.14424567499327
  H           1.43273598123501     -0.46106156981496      1.50111962608600
  H           2.73248765400469     -0.73943722731546      0.31657708184070
  O           2.69065358033491      1.65698326142654     -0.63516375581846
  C           3.31875442615478      0.50722640247027      1.96930371360251
  C           2.72276433775399      1.59050361209971      2.82979510462053
  C           3.20421408269040      2.81542025677726      2.92207679239129
  O           0.60297601799862      1.55857691441544      0.18707044040078
  N           3.80677940460906     -0.63086822304794      2.73964763820680
  H           4.16998222494802      0.90909285683339      1.40921635515247
  H           1.85677755043362      1.29293851896428      3.40805310960752
  H           4.06438729670146      3.12778526929560      2.35179541732466
  H           2.75926050701739      3.55930681502658      3.56107432250657
  C           2.36205588640658      2.77613703290018     -1.44766113539803
  H           2.49116313686623      2.49495164925258     -2.49315319673792
  H           3.04129038925873      3.59078112154638     -1.19656593227022
  H           1.32884622873606      3.07693090602808     -1.26517337633346
  H           3.05690580392558     -1.01454873619089      3.30694429319067
  H           4.54740795824846     -0.33484130980709      3.36605267671282
