20
Coordinates from ORCA-job NEB E -54.020801941150
  C           1.07256166828581      0.48568700238695     -0.34867277741165
  C           0.40444381224808      1.69528066343218     -0.58067490963709
  C           1.13438902526213     -0.47849652331179     -1.51923475633671
  H           2.03384797676838      0.52433134450738      0.15731991933070
  Br          0.91778704857872      3.17504663910422      0.56603132445815
  C          -0.19363998637309     -0.27382085820331      0.93636079796440
  C          -1.42539031198527     -0.17384374001668      0.28748380893411
  C          -1.88763390205685      1.13062196105142     -0.06686703658132
  O          -0.77225656491935      1.73436094852980     -1.05990824954293
  C           0.28426733789723     -1.64990607031890      1.34511895755014
  H           0.04092965102930      0.44322090978085      1.72109306619574
  H          -1.79856235087256     -1.02474156041408     -0.26243554714849
  H          -1.87639047660344      1.88089578228852      0.72276604733568
  H          -2.78541289933498      1.17082189122229     -0.67142115835077
  F           1.81003923642051      0.09002151314412     -2.53295881382206
  F           1.79363302778458     -1.59617452066543     -1.21269755078683
  F          -0.05127776876639     -0.83830328022432     -2.01209803352733
  F          -0.02528306836381     -2.60769324906092      0.47250012180018
  F           1.60730876082027     -1.69050618681494      1.54476389320293
  F          -0.28336021581925     -1.99680266641737      2.51353089637315
