20
Coordinates from ORCA-job NEB_reactant E -54.051402225820
  C           1.67259184111564     -0.06371054223394     -0.13304943332129
  C           0.98729166507922     -0.05308792710617      1.01425814052379
  C           2.21389953642069     -1.34302367501372     -0.68126534026949
  H           1.86689715342062      0.82807957424560     -0.69934451978500
  Br          0.31837917818471      1.60923716263825      1.65739625349258
  C          -0.27128561097890     -2.87706716184794      4.65151061727853
  C          -0.13834758581953     -2.54221555520150      3.37948179844870
  C          -0.01808888531995     -1.13242807500824      2.90072787612718
  O           0.76364453746721     -1.14745673715704      1.71804476165799
  C          -0.43294163787881     -4.29534329894551      5.10454612039659
  H          -0.28920310327111     -2.16106491525146      5.45959241149680
  H          -0.11738024849913     -3.29142297017412      2.59985695535886
  H           0.44653993580653     -0.49323081510614      3.66164078253121
  H          -1.02225341969705     -0.73980362599510      2.67981029677186
  F           3.13177760092327     -1.91082473137029      0.12206765931601
  F           1.26199599472658     -2.27534991668252     -0.86788221691759
  F           2.80507329682898     -1.15527516357042     -1.86551202146886
  F          -0.40561903181000     -5.18171881124480      4.10457068186761
  F           0.53090562616448     -4.65254728307878      5.96866046221852
  F          -1.59977684286341     -4.47594553189616      5.74878871427602
