17
Coordinates from ORCA-job NEB E -25.476584991180
  C          -0.20265289152980      0.35998548544632      1.15863591991196
  C          -1.53459142470828      0.66425111307269      0.91300453785229
  Br          1.19087674049032      2.17460688827942      1.00032092488876
  H           0.05155286173085      0.15855517811742      2.19085837926944
  H          -2.26438393365247      0.74093354700904      1.70542967919930
  C           0.36164462566921     -0.66663252650270      0.10523193319624
  C           0.04127487544003     -0.06454397801944     -1.19553651698561
  C          -1.32766862230721      0.38302484377914     -1.44318724977971
  O          -2.07911612034830      0.80094467126985     -0.29245373291167
  C           1.83743480749922     -0.98140589369844      0.29634376269879
  H          -0.21250255836979     -1.58570792166611      0.28608452578501
  H           0.83553491899772      0.41646971819259     -1.74172298839944
  H          -1.95027093188028     -0.42155021127975     -1.85986441332009
  H          -1.35463208589521      1.21863012984053     -2.14853172515897
  H           2.03471848192320     -1.26188236871050      1.32810059687491
  H           2.45542976535108     -0.12469846992780      0.04592107713770
  H           2.11735149158969     -1.81098020520226     -0.34863471025891
