17
Coordinates from ORCA-job NEB_product E -25.530576662270
  C           2.89080939655651     -1.80769918589643     -0.30132087269477
  C           1.41691691166602     -1.48549119323224     -0.27282788614519
  Br          3.89626528335454     -0.14325947408546     -0.06465356094981
  H           3.11751331432420     -2.39424730713565      0.59707370709932
  H           1.16303254623044     -0.59789126055302      0.33632576475987
  C           3.31542376400089     -2.58114670569840     -1.55501510055847
  C           3.15620978952755     -1.73011134806157     -2.78283786424541
  C           2.21768462306422     -1.91297485566608     -3.69079107243920
  O           0.57940431824660     -2.12922507555840     -0.83206265870560
  C           4.75032515992287     -3.08804371880512     -1.43000472254852
  H           2.62893364736221     -3.43352223259961     -1.62261540707498
  H           3.87572789801282     -0.92792219743813     -2.88436268314780
  H           1.48934759778148     -2.70230340799371     -3.60409026440168
  H           2.13407207644204     -1.27668026676648     -4.55506079382552
  H           4.85797928388834     -3.73990325081382     -0.56488806545261
  H           5.44368415976250     -2.25514503356435     -1.32694475416424
  H           5.02127022985676     -3.64913348613152     -2.32092376550540
