26
Coordinates from ORCA-job NEB E -47.736822080410
  C           0.14656967234885      0.11322822874730      0.80626762684187
  C          -1.32185450686579     -0.08059590153333      1.04475257596294
  C           0.78391377180066      1.21774487552647      1.65505094468364
  H           0.67227882847040     -0.80709759697507      1.07814620740565
  C          -1.79743563596957     -1.44515216843497      1.28590674198065
  C           0.33666110685279      0.40988119007102     -0.74805410885590
  C          -0.97677030236340      0.78178416938774     -1.32117641285873
  C          -1.75521803855065      1.73639927601941     -0.51835736470599
  O          -2.07098515397835      0.48016054316921      0.03288497641681
  C           1.01459313284462     -0.74354171869087     -1.49356768741335
  H           0.98947960838877      1.29016233848859     -0.80199354357270
  H          -1.38970521021033      0.31506892992236     -2.19536645715939
  H          -2.64237892806174      2.18110475352128     -0.96222940232779
  H          -1.21394797114833      2.42159022628461      0.12692680858999
  F           0.80545143133093      0.83532124700546      2.96939812629641
  H           0.23489135424408      2.16485483098239      1.62435865728522
  H           1.82781402289442      1.38070092242189      1.36239305794995
  Cl         -3.53664562257325     -1.44796428997184      1.60695502147778
  Cl         -1.61098353738148     -2.64059210353064     -0.19558342885094
  Cl         -0.94529389085797     -2.20174386461519      2.61343408496562
  C           2.47689506919336     -0.90509898050867     -1.09739009253955
  H           0.96081394187639     -0.54017232968256     -2.56527455922854
  H           0.47340718018330     -1.66858615833366     -1.29891261421513
  H           3.03051515662915      0.01315587802905     -1.28572128298251
  H           2.57599838755223     -1.15764145393036     -0.04496658555641
  H           2.93193613335091     -1.70297084336964     -1.67788128958962
