26
Coordinates from ORCA-job NEB_product E -47.797172905300
  C           2.87156758230195     -0.96060877781582     -1.66358385627796
  C           1.52986416655204     -1.61839074942829     -1.83164484671937
  C           2.64516800105416      0.33927694151725     -0.87309983004557
  H           3.54553559056322     -1.59797776538239     -1.08815897814771
  C           1.34754470900000     -2.96395087381880     -1.08536242464111
  C           3.54344523582707     -0.62171967997701     -3.02547098870070
  C           2.64168304885595      0.18993456311891     -3.90942682362679
  C           2.79656602427847      1.48408553589938     -4.12046317529249
  O           0.60500586240534     -1.14990783529191     -2.42771550029788
  C           4.00899662875564     -1.87986594460567     -3.77162276194714
  H           4.42407264415760     -0.01939976726964     -2.77788184425645
  H           1.84140842304553     -0.35226010520452     -4.39221140925345
  H           2.14106968050413      2.03678009746583     -4.77132410698870
  H           3.59000429356881      2.04562601818880     -3.65321576927513
  F           3.85226564629748      0.91379346329900     -0.58142011245086
  H           2.14833269025760      0.14627112971596      0.08246127159298
  H           2.07350574241140      1.05864787850488     -1.46657071321739
  Cl          2.59373400973870     -4.14199006074331     -1.51584183707604
  Cl          1.47289507687659     -2.59134698322376      0.65525218237992
  Cl         -0.24716566381501     -3.64851273767143     -1.42237103993411
  C           5.25184525226003     -2.51576007529286     -3.16061280588581
  H           4.23998151334753     -1.58709340769900     -4.79849794457816
  H           3.19566685292640     -2.60677681511751     -3.81296750150723
  H           5.06600803911367     -2.87645650167388     -2.15297228680244
  H           5.57083471184019     -3.36150015882940     -3.76452407741046
  H           6.06586423787548     -1.79539738866482     -3.12425281963993
