17
Coordinates from ORCA-job NEB_reactant E -21.941753908280
  C           1.80441038772462      0.03500987537773      0.00294342929366
  C           1.16806745296558     -0.11983906653736      1.15622258480899
  C           2.05009307298201     -1.06367274091523     -0.97832894569471
  H           2.17255781181713      1.01653156560231     -0.25272169096492
  H           1.01665831833021      0.71262150991623      1.83551935381669
  C          -0.44035453064414     -3.30865452858907      4.25775852461789
  C          -0.50413004579467     -2.69362865287541      3.09309054594487
  C           0.03908556042989     -1.32324204855217      2.83037615331278
  O           0.66260222998960     -1.32013332156766      1.56353770098092
  H          -0.86254933495822     -4.28723205300181      4.40600760740266
  H           0.02862465542031     -2.85472569462048      5.11549649174901
  H          -0.96829362780778     -3.15742908198787      2.23460732896958
  H           0.75269462443229     -1.03208096858721      3.61473571465614
  H          -0.79240943483557     -0.59710523228859      2.83855682814054
  H           1.64407579756823     -1.99701288905985     -0.60067157790526
  H           3.11901112999556     -1.18446723000695     -1.15317786082911
  H           1.58125593238494     -0.83133944230661     -1.93445218829971
