27
Coordinates from ORCA-job NEB E -47.591946920850
  C          -0.11253437108622      0.57235779496959      0.58678844419214
  C          -1.38230797417249      0.20182898775315      1.02374132625201
  C           0.01603999344975      1.83571085127211     -0.23975520850282
  H           0.69605371845151      0.41876193308635      1.29251310875310
  C          -1.49057268275669     -0.61207263042261      2.31355522129976
  C           0.20198813808230     -0.93191322745791     -0.81474063195572
  C          -1.05743266795188     -1.50960121403348     -1.00746403722959
  C          -2.16385097908233     -0.70140015072307     -1.26297997717364
  O          -2.39383878661786      0.22023726213475      0.25299235088995
  O           1.16560604914808     -1.74595699141803     -0.32621393318596
  H           0.53722239317012     -0.17906115347756     -1.52111426440015
  H          -1.21717345562955     -2.46170829371122     -0.51986535766805
  H          -3.13556129911455     -1.16638145638597     -1.32731816076296
  H          -2.04238072565391      0.16004854577817     -1.90507100256367
  C           1.45064573923933      2.20735168359698     -0.59411238119413
  H          -0.40022740408429      2.64434812870427      0.36898551924191
  H          -0.59776339872823      1.77427623701451     -1.13879953212577
  H           2.06496067514757      2.24762329479252      0.30270101142883
  H           1.46934810111089      3.18906097281847     -1.06122285558377
  H           1.89977975838851      1.50031132636437     -1.28747676170822
  Cl         -0.49903009254874     -2.09684361426542      2.26069230707760
  Cl         -0.89577757864654      0.38429301860787      3.66371691439558
  Cl         -3.16531332751496     -1.06249832582931      2.63010159777583
  C           2.49776601771615     -1.29621780043456     -0.41089185339587
  H           3.11984141326636     -2.13329480199368     -0.10029769081835
  H           2.67606184430280     -0.44828643967326      0.25688601513234
  H           2.75845090211487     -1.01097393706703     -1.43535016817038
