27
Coordinates from ORCA-job NEB_product E -47.633073437310
  C           2.70514222098885     -1.67931141186426     -0.36666680776738
  C           1.64785697331828     -2.40960184108082      0.42185080474101
  C           2.08948928877226     -0.40913053946704     -0.97439431060841
  H           3.53529239878810     -1.40914109833741      0.28931470345332
  C           1.96317663125031     -2.59406909899903      1.92146458179690
  C           3.24488800539450     -2.66264914678715     -1.43726212625330
  C           2.25248517292919     -2.90985228138512     -2.53850582248414
  C           2.50712783322794     -2.69242297676324     -3.81516170282952
  O           0.59743771345155     -2.77955936079852     -0.01308908936616
  O           3.54931255048584     -3.85750268641377     -0.73214912496209
  H           4.17430818921414     -2.24910958673017     -1.86297916612715
  H           1.30724003753648     -3.32026258646250     -2.21421940666754
  H           1.77962479141249     -2.89506416284413     -4.58224665756053
  H           3.45375309884296     -2.29730972872201     -4.14985098774369
  C           3.11858218479898      0.44432707959545     -1.70272213852383
  H           1.65072674028439      0.17460391209618     -0.16255590898324
  H           1.28793230622289     -0.69391238581657     -1.65690774370683
  H           3.95305591822432      0.68132479811044     -1.04690727899477
  H           2.66067606830777      1.37623939479290     -2.02399976559297
  H           3.49817384511410     -0.06792012181294     -2.58190478758899
  Cl          3.57168627882047     -3.25518657016934      2.20698106636767
  Cl          1.87055716202901     -0.95026739289987      2.61287644791346
  Cl          0.75418239142872     -3.61798389519277      2.69721924215087
  C           4.27297903247412     -4.79688521276846     -1.48710239230249
  H           4.46616793848462     -5.63573981542506     -0.82197614517310
  H           5.22533902515437     -4.37397489266593     -1.83031478997646
  H           3.70410620304332     -5.14073839118885     -2.35759069321064
