27
Coordinates from ORCA-job NEB_reactant E -47.629446960040
  C           2.18013816212800     -0.47554991236641      0.10126320549958
  C           1.57850584159462     -1.65946569191424      0.00155186952965
  C           2.02802701889655      0.64858564014126     -0.86868806432341
  H           2.83248229527643     -0.29510662633032      0.94325381897810
  C           1.79035882792882     -2.70548728100582      1.08174814073927
  C           3.23693183046602     -3.94237146049159     -2.01447348859504
  C           1.92664103460182     -3.77197402439611     -2.15549140295642
  C           1.29872763366379     -2.41935317396605     -2.23787289714284
  O           0.71017821382172     -2.00019479090530     -0.99213260391427
  O           3.80064627878180     -5.16621753547230     -1.91210295472809
  H           3.91815975590673     -3.09527134639623     -1.99613238878313
  H           1.27120347557145     -4.62757031391547     -2.15181261877040
  H           0.45425678246531     -2.42291243494404     -2.92986289525654
  H           2.03694152559508     -1.67631253400597     -2.55972504305355
  C           3.36090185792646      0.98413256232232     -1.53916711376175
  H           1.68053578780472      1.52694413505179     -0.31852660628169
  H           1.27557068009291      0.39836960932737     -1.61667625315026
  H           4.10567639264570      1.24874111700205     -0.79240594859170
  H           3.23831676147431      1.82314248609226     -2.21918304297703
  H           3.73245192933297      0.13259594528449     -2.10526770654249
  Cl          3.50137067142589     -3.21414581548260      1.11116381226514
  Cl          1.41920744977672     -2.02207188668815      2.68775815540085
  Cl          0.78419091321474     -4.13028787805733      0.83977557715159
  C           5.19167785890837     -5.18501469909681     -1.68830634394848
  H           5.44412225782547     -4.71270187635948     -0.73346356826756
  H           5.73206802672866     -4.67872009164532     -2.49524260013952
  H           5.48291073614496     -6.23318212178204     -1.66098103838000
