18
Coordinates from ORCA-job NEB_reactant E -30.803683166490
  C           1.94361499335559     -0.07968196972860      0.03953645531511
  C           1.14527275431411     -1.16689124181840     -0.06401311017019
  N           2.33295040531319      0.67069882141735     -1.03575643783815
  H           2.24039713423657      0.27034541776141      1.01589865035856
  C           0.72133238288935     -1.83827545197199      1.09332176055035
  C           0.08664191913564     -4.16255355447713     -3.42197360955697
  C          -0.35019188907745     -3.09538486745557     -2.76861332780450
  C          -0.00465321614412     -2.80292272621669     -1.34571742692511
  O           0.76273241556786     -1.61051735293608     -1.32069249150085
  O          -0.19147409114066     -4.47567823845761     -4.70522152786194
  H           0.71055575511932     -4.91469838157533     -2.96078997000945
  H          -0.96543981394455     -2.35590688239689     -3.26342027553343
  H           0.56724106796288     -3.63327177858964     -0.90947326869877
  H          -0.92003360383173     -2.66466770985108     -0.75014054217190
  H           3.17568494838033      1.21265603301068     -0.94830764336725
  H           2.17896803939114      0.23427711333052     -1.93188585954330
  N           0.37680894068667     -2.38848886788990      2.04348961595003
  H          -0.75020814221415     -3.79233836215506     -5.09794099119222
