18
Coordinates from ORCA-job NEB_product E -30.776915061360
  C           1.55509099497712     -1.37262988422146     -1.42001601941826
  C           1.65334330056202     -1.92190679372613     -0.01017430409492
  N           2.84864653156580     -1.41840066026878     -2.05399982023947
  H           1.11532132645105     -0.35662704879832     -1.34204968922146
  C           0.44923251664378     -1.70883432718781      0.78066817290152
  C           0.57680172171387     -2.20960562852910     -2.28511583963631
  C          -0.72339817161149     -2.48667649971019     -1.58559098650095
  C          -1.10382989687550     -3.68825454928862     -1.19264670570317
  O           2.63996435976772     -2.41736680043404      0.46743989482000
  O           0.37446749196256     -1.44569306570615     -3.45990306479217
  H           1.09006562882489     -3.15236923867629     -2.52718696079100
  H          -1.36319675912764     -1.62410300523666     -1.45667827201420
  H          -0.47578230703879     -4.55396639694444     -1.32839082265130
  H          -2.04744484252153     -3.85100458171035     -0.70229987958349
  H           3.55823725504333     -0.95925013533938     -1.49651847747768
  H           2.80329922621467     -0.99643984497218     -2.97267324988439
  N          -0.43966823191085     -1.48420719484070      1.46700497779424
  H          -0.21115014464102     -1.93246434440938     -4.04926895350697
