19
Coordinates from ORCA-job NEB E -48.610673636530
  C           0.60410116595823     -0.82933344932219     -0.73275994452350
  C          -0.75092655241206     -1.07848526600439     -0.40578209467783
  Br          1.88679213232964     -2.00663603283728      0.07076353255853
  H           0.84999048961461     -0.65889526011161     -1.77776652036076
  C          -1.80434939966875     -0.57738007881585     -1.38737415935775
  C           0.82585960729286      0.80811312496561      0.12992450790644
  C           0.44234636864200      0.54795348230985      1.45793865993709
  C          -0.90050239669750      0.15625705245265      1.70506308906522
  O          -1.08710014540257     -1.20431109979057      0.83473776065823
  N           2.23865339688880      1.15711642240647     -0.07697326767930
  H           0.19946653655175      1.43149311676894     -0.50480222388573
  H           1.22423553005802      0.24904619573240      2.14474091352104
  H          -1.68152907555729      0.78315118559460      1.28227658526970
  H          -1.12813623378156     -0.17554718611531      2.71082338615599
  F          -3.00161487795133     -1.10141759638827     -1.15084144446121
  F          -1.95508211203899      0.77142193029172     -1.31972093641406
  F          -1.47387077154185     -0.84656474890582     -2.65479336811153
  O           3.04329293927420      0.68472470377341      0.68145276206971
  O           2.46837339844180      1.88929350399566     -1.00690723767028
