19
Coordinates from ORCA-job NEB_product E -48.640229754810
  C           2.80832290168108      2.47703164644899     -0.36853877484832
  C           1.34768163951233      2.10339039594556     -0.35467895649790
  Br          3.65240026288253      0.69635573831560     -0.44603554234269
  H           3.08746329953084      2.98689755546988     -1.29492687114974
  C           0.74400238469158      1.98884502610733     -1.78605719139529
  C           3.22817248966079      3.27975086273672      0.86365427720605
  C           3.04953915391521      2.55530229095790      2.16369063367298
  C           2.33623653747947      3.03438767674298      3.16441797614903
  O           0.67471124843629      1.91808187900453      0.61207839690737
  N           4.68374399169234      3.63179759298240      0.69882305615464
  H           2.67896553691917      4.22907902713127      0.85887018715248
  H           3.57955153190633      1.61662576398805      2.24143337767210
  H           1.80978895451617      3.97219007643858      3.09867786896056
  H           2.23813289354605      2.49236937400800      4.08752455721184
  F          -0.42833077520839      1.37376792461527     -1.79007300687171
  F           0.56277860027557      3.23423439893405     -2.26404472494473
  F           1.54967540784374      1.36196097899586     -2.64715382051742
  O           5.47584022856454      2.73684376631207      0.80611950532542
  O           4.92722371215434      4.78518802486496      0.45971905215535
