19
Coordinates from ORCA-job NEB_reactant E -48.650265546490
  C           2.47910218273122      0.88755367064022     -0.43491134302483
  C           1.49318970945065      1.75528586751043     -0.21283042557683
  Br          3.85792758339549      0.35407286832201      0.73350732092439
  H           2.54416399085283      0.38996404097382     -1.38837017219769
  C           0.50335370529608      2.02813663777440     -1.34122293344394
  C           3.56974771795560      4.00783421317215      0.78656096894594
  C           3.20507560266786      3.29896881514192      1.84751567581935
  C           1.89818364029055      2.60032542850706      2.01090486189274
  O           1.12216925234039      2.52793531564272      0.82894421834468
  N           4.85788480459862      4.64485610958455      0.73693905458632
  H           2.97533628179858      4.17285338344109     -0.09970081840960
  H           3.89224366626043      3.21276908040295      2.68018124736642
  H           1.27283727217938      3.17911300464479      2.70123098082062
  H           2.04720368423902      1.60736419252476      2.44865119093081
  F          -0.75602561493698      1.84100994596540     -0.94454589254708
  F           0.60273515534493      3.29616229151179     -1.75836417555825
  F           0.69746935299409      1.25169627388452     -2.41041265055918
  O           5.57270373838659      4.56778885086406      1.71021920811550
  O           5.13249827415465      5.21891000949137     -0.29239631642940
