22
Coordinates from ORCA-job NEB_reactant E -33.251022285950
  C           1.83483866907748      0.01212370053185      0.19041152715919
  C           1.44383985833212     -0.35081239920105      1.41086707780189
  O           2.21002556529484     -0.85869346976910     -0.81914009635339
  H           1.81311307003083      1.06524501655255     -0.04557234686645
  O           1.01757769409697      0.61679339817438      2.27281978811046
  C           4.43083631386845     -2.60615701530021      0.54280494036272
  C           3.57416537435992     -2.43075592375264      1.53350504134333
  C           2.09575476393830     -2.65296713613801      1.41984495327926
  O           1.35356567017985     -1.58201603738800      1.98792709475881
  C           5.90329521202715     -2.36641582243202      0.63563970966363
  H           4.06931838868116     -2.92739953399900     -0.42527005035171
  H           3.91145746864834     -2.09591906253088      2.50606804232527
  H           1.79423838543755     -3.52199388856522      2.01505370161078
  H           1.80644225084572     -2.80725168572169      0.37706584597377
  H           2.86235965085626     -0.41992880758936     -1.37408936042844
  H           0.73121135065132      0.16755879012929      3.07884251319144
  C           6.33027662040360     -1.25015618968471     -0.31831158604375
  H           6.43509862598872     -3.28426643805435      0.36998070486781
  H           6.17429386692174     -2.09928605056141      1.65841526214559
  H           6.07466790390846     -1.50743945123113     -1.34397499590182
  H           7.40411342618326     -1.08921449783863     -0.26051727268378
  H           5.82710987026797     -0.32154749563068     -0.05797049396462
