23
Coordinates from ORCA-job NEB E -43.291610572170
  C           0.45011901543025      0.13032141159782     -1.50920550170109
  C          -0.61248133154962      0.74492718093920     -0.83872536400017
  N           0.25973754160609     -0.90755632961622     -2.38544750965370
  H           1.37622964981097      0.67950661616481     -1.59316518894916
  O          -0.23940484742024      1.85863356576453     -0.13905148558691
  C           0.78594975209474     -1.12094952834645      0.39162041671162
  C          -0.31114158320892     -0.90527885468486      1.20505176199272
  C          -1.58602695140822     -1.13485501370269      0.68864703560930
  O          -1.71619887109625      0.16819764220815     -0.62550564627361
  C           2.14558971783012     -0.78256409925154      0.85047274651234
  H           0.74552301997301     -1.94287725988386     -0.31240964537601
  H          -0.20996425177687     -0.24238934272676      2.05577786866359
  H          -2.44979358523918     -0.89501078240934      1.28746860485229
  H          -1.72557427457231     -1.94700020540120     -0.00825682806980
  H          -0.70181168203791     -1.16561053242725     -2.54459560337510
  H           0.87526017712843     -0.97016463482055     -3.17745023627764
  C          -1.21052160470751      2.48470901403310      0.67870784317621
  H          -1.60524330321595      3.36372988594069      0.16323358103738
  H          -0.70892700106392      2.79225968223936      1.59553382841217
  H          -2.02946683621864      1.79988434192739      0.90327883785403
  Br          2.69204232410689     -2.01243163255598      2.34434254345321
  Br          3.46992256923211     -1.02759013313914     -0.55370853461112
  Br          2.30618235630295      1.03210900815082      1.52338647559947
