23
Coordinates from ORCA-job NEB_reactant E -43.317822695760
  C           2.30874424146554     -0.28431492323279      0.07478870374025
  C           2.20959275432923      0.04286994086781      1.36463520376847
  N           1.55073304607959     -1.26713822199867     -0.54095909841460
  H           3.07448155848983      0.18073851082280     -0.52494387020565
  O           3.12216370094598      0.87387273525773      1.97369467834157
  C           3.95966027296885     -1.32222236422102      4.04143301934103
  C           2.69917467899453     -0.91807282630942      4.02100503290256
  C           1.67654279608604     -1.47592730669607      3.08305764396348
  O           1.21337105461463     -0.47659945070976      2.17870261043222
  C           5.04106050279224     -0.74856987189271      4.86403150197706
  H           4.29411429347696     -2.12795623178735      3.39840894813548
  H           2.35501714119370     -0.10395236710455      4.64460816296976
  H           0.78563723554580     -1.79059997427050      3.63412308404966
  H           2.08688479360577     -2.32583438401944      2.52231202887300
  H           0.72691567076011     -1.52131115774431     -0.01323665188212
  H           1.35630773124756     -1.10158342465275     -1.51652136304571
  C           2.57973703208558      2.09761623919901      2.44968991080845
  H           3.35126382333968      2.55706549484246      3.06440576855302
  H           1.68132230616312      1.92492150506348      3.04853698320600
  H           2.33102045369844      2.75845615372910      1.61388152522131
  Br          6.48172148576135     -0.10149533413399      3.68387330397745
  Br          4.50973260558183      0.72716004082280      5.99617759377563
  Br          5.80560082077365     -2.14792278183188      6.03209527951170
