31
Coordinates from ORCA-job P E -40.867759459510
  C          -1.39659913796819      0.30960150292865     -2.21030821995153
  C          -0.11424886102477     -1.72564268596606     -0.85298715628179
  C          -1.55434672063704     -1.89966258995740     -1.21415620770311
  C          -2.17064869276594     -0.93379671951915     -1.87745119380331
  C          -0.73832506918470      0.77114991456313     -0.89225432398654
  C           0.12071061832063     -0.32666444490871     -0.23219867249578
  H          -2.05174327946526     -2.81185622508195     -0.92573183556622
  H          -3.20902981662967     -1.01189878652898     -2.15156360376527
  C          -2.22480311157358      1.40655121708995     -2.92155970067095
  H           0.21948164081051     -2.49228228146364     -0.15486435967987
  H          -0.60006922351616      0.02133116815574     -2.91449134112623
  H           0.49179588073700     -1.82411914208174     -1.76203814244378
  H          -1.53423127640034      1.04442030568414     -0.19965064486160
  H          -0.12077870790011     -0.38586160766706      0.83177845735877
  H          -0.13103759481950      1.66315402996604     -1.05542589811209
  C           1.60984925305639     -0.02877407951380     -0.32345734218093
  C          -3.38893110138685      1.89507023308732     -2.05696212799653
  C          -1.32980605031178      2.60222212429841     -3.27165108438503
  C          -2.77142124822957      0.83416227984101     -4.23563231253824
  H          -3.02888632437921      2.42370451088419     -1.17803429829554
  H          -4.01218115653800      1.06747871728081     -1.72917996212434
  H          -4.00947641091419      2.58134865219680     -2.62869777694195
  H          -1.00128302875472      3.13254014497888     -2.38184844116236
  H          -1.88308484066488      3.30698520166486     -3.88802887266207
  H          -0.45313190449324      2.28310549031001     -3.83267139367438
  H          -3.45155073251275      0.00592934343666     -4.05992538716556
  H          -1.95899324238825      0.47871627083012     -4.86645458495458
  H          -3.31320877986343      1.60302691634662     -4.78155071187364
  O           2.36737830142627     -0.13358088037018      0.59692349720138
  O           2.04632722277476      0.33895602489832     -1.54074081979385
  H           1.31849339519658      0.39786539461702     -2.17603553836307
