15
Coordinates from ORCA-job NEB E -30.863819047140
  C          -0.03433044585819     -1.49907424238115      1.61347699615678
  C          -0.34280202362795     -0.14844224152671      1.83858334350293
  Cl          1.09510580886230     -1.48935820706916      3.06984987350156
  H          -0.81635920827864     -2.21939253043413      1.83781542710550
  Cl         -1.30277256361469      0.53669486663133      3.23078811464312
  C          -0.26089701717375      0.84999707913180     -2.16145654881552
  C           0.08823132186863      0.10420029345037     -1.11919304903914
  C           0.91625798052514      0.61233445950879      0.01164867898135
  O           0.10659469197187      0.85348883833500      1.18814478752784
  O          -1.00883594764821      0.44956418064366     -3.20161722600540
  H           0.05882929291948      1.87641356694858     -2.27797298787334
  H          -0.25183200452574     -0.91711070799906     -1.01646007360289
  H           1.36159762178574      1.58142861567628     -0.21560223875919
  H           1.67951134878255     -0.12255146887974      0.28391717864456
  H          -1.28829885598855     -0.46819250203587     -3.08192227596814
