15
Coordinates from ORCA-job NEB_reactant E -30.947436574880
  C           1.12081519374625     -0.22087368664191     -0.58204213908428
  C           2.17395701311724      0.30118517729310     -1.20901639644715
  Cl         -0.36863719405480      0.63051611578691     -0.49962981303690
  H           1.14384717648955     -1.17374854294459     -0.08648576718785
  Cl          3.63189024704037     -0.63991483360238     -1.26460735701408
  C           1.91615348687691      0.38796345422520     -4.35453854152977
  C           3.02265215735438      1.02253478238791     -3.99210983685872
  C           3.14449963108539      1.84206818088555     -2.74054150477603
  O           2.17838892629788      1.52123794770463     -1.75037984027845
  O           1.76450247473178     -0.36616648739398     -5.46243298518075
  H           1.00743345322009      0.41684377281637     -3.77068692870549
  H           3.91474184796774      0.97720336537872     -4.60150895918572
  H           2.96381611972314      2.90255826057482     -2.94716857317287
  H           4.15527515797387      1.73747981400292     -2.32619046971358
  H           2.58526430843022     -0.37898732047325     -5.97196088782834
