20
Coordinates from ORCA-job NEB_product E -50.101986007140
  C           3.11218319255642      1.77663064560176      0.56605992684218
  C           1.71451206213109      2.04114157921313      0.06753793908109
  Br          3.10290049519744     -0.19019070734082      0.69143535835221
  H           3.87091723803323      2.02258617602612     -0.18119572529158
  C           1.57468184158806      2.20526322620811     -1.43791024951576
  C           3.36785104117333      2.49429526619208      1.89986257316490
  C           2.83436027694931      1.73484623274130      3.08541172765724
  C           1.77608085114125      2.11654052153895      3.77350576587848
  O           0.76008600804009      2.17482837054488      0.77503746041498
  C           4.84679790123607      2.81608111009942      2.09401719914603
  H           2.84030083987237      3.45830769627847      1.84281221335348
  H           3.37810122621471      0.83752528949717      3.34822833761167
  H           1.21684725379400      3.00308755116533      3.52525201519092
  H           1.42030969460597      1.54068312927802      4.60903865396528
  Br          2.65169757388385      1.02632697288538     -2.51969390794028
  Br         -0.27872491848617      2.08561999938266     -1.95512640883895
  Br          2.21600439719262      4.06698145612238     -1.67446461672230
  Br          5.08547718482640      3.74844249318480      3.79523833953898
  Br          5.96888071355990      1.22754639257099      2.10140010508485
  Br          5.49273512649007      4.01425659880987      0.66705329302658
