17
Coordinates from ORCA-job NEB E -38.070291623450
  C           1.07927741237142     -0.09390289098986     -0.26126994851762
  C           0.51504939467053      0.96775653390696     -1.00830747474443
  C           0.89311035702929     -1.50407904299895     -0.77351411587604
  H           2.11986918640243      0.04555138375942      0.02398927231684
  H           1.05155275866048      1.92200843169306     -1.00364802706520
  C           0.10376426266264      0.17215705721990      1.36320501947983
  C          -1.24479552839931      0.15341257717936      0.97066194920456
  C          -1.68657941692722      1.13266902160643      0.05124803572109
  O          -0.73220101727885      0.97296360129484     -1.30388474000836
  Cl          0.60619797272507     -1.01633282357933      2.53378543983218
  H           0.55451980110832      1.12846885382308      1.60828858729006
  H          -1.79365675508244     -0.77014263378579      1.05999696001037
  H          -1.45362296868945      2.16861835730019      0.27535975992616
  H          -2.68244896141773      1.00200184122819     -0.35169057395092
  Cl          1.72288799986870     -2.70945655586138      0.23293966639482
  Cl         -0.76748680518800     -2.01697531572463     -1.03233370013865
  Cl          1.71456230748413     -1.55471839607149     -2.38482610987468
