17
Coordinates from ORCA-job NEB_product E -38.115641815240
  C           1.68272337341040      0.30465123774343      1.55848271388503
  C           1.00924198475729      1.06878699124224      0.41632658236409
  C           1.42977628396627     -1.18989167099821      1.38015703032594
  H           2.76211234332310      0.47388539622050      1.44014690634482
  H           1.06125311538761      0.54289403523555     -0.55089534007819
  C           1.25944039495747      0.91461540407835      2.90848080523698
  C          -0.02707666161470      0.40677591647402      3.47156289394784
  C          -1.12974985420441      1.13272570379125      3.49403291399962
  O           0.50136940205544      2.14147856542662      0.53050073135443
  Cl          2.56724769819557      0.67606672367089      4.12058073805107
  H           1.19286841760735      1.99607368062194      2.75185081902087
  H          -0.00203157801266     -0.58566101600454      3.89679858315591
  H          -1.16302171451898      2.12683707448438      3.08037572183817
  H          -2.04539606908130      0.75101038420662      3.91022719023887
  Cl         -0.30975744297875     -1.49261787988564      1.12673277086591
  Cl          2.29776551365547     -1.76264865670133     -0.07581881260707
  Cl          1.99413479309480     -2.15728188960607      2.74955775205572
