17
Coordinates from ORCA-job NEB_reactant E -38.114125956380
  C           1.78983411921012      0.00030291666027      0.04629550942160
  C           1.12390839858769      0.75861524747834      0.91906798536819
  C           2.11226163970122     -1.43972311375073      0.14423244219843
  H           2.15603025364196      0.46321848272689     -0.85623128934932
  H           0.97961917132718      1.80838340297315      0.67892080811557
  C          -0.29364441631256      1.08913009017646      5.32303588396937
  C          -0.55313057990249      0.63431309212843      4.10895568933112
  C          -0.07340127287150      1.30799244599995      2.86179836878763
  O           0.61079935012803      0.33908351661703      2.08090998663318
  Cl         -0.86375381989176      0.31941979299286      6.74292716359649
  H           0.27709852416828      1.98571949628325      5.51441329740556
  H          -1.11507327122346     -0.27443706438601      3.95662442929875
  H           0.59392844241261      2.14535276084507      3.10279167559048
  H          -0.93483713508523      1.69289750098775      2.29513243659117
  Cl          1.51636012751551     -2.24160289278615      1.59306422797320
  Cl          1.43645443133687     -2.29391373457496     -1.28429671837518
  Cl          3.89604603725753     -1.65095194037161      0.08385810344377
