19
Coordinates from ORCA-job NEB E -39.637546823100
  C           0.90582024620376      0.48835119529165     -0.06954737957386
  C           0.05028803542622      0.43594907816494      1.06622559681738
  C           0.71217915989619      1.62349617673059     -1.01150963136567
  H           1.96519575060996      0.33680848296156      0.13505228112403
  N           0.54210441630218     -0.08494554125944      2.23528911066202
  C           0.32316038770659     -1.28590342349553     -0.78943760654041
  C          -1.05564610716920     -1.16518219141094     -0.95223848397771
  C          -1.82312762519392     -0.92965975849214      0.20925818393125
  O          -1.22038269024990      0.50115561819981      0.91814575593073
  Br          1.38468010068777     -1.74493143835990     -2.31321827930003
  H           0.69983778954995     -1.81863696183200      0.07788827170445
  H          -1.45331194300698     -0.88961311291210     -1.91602025422248
  H          -1.64325311636189     -1.57295350230506      1.06457628511542
  H          -2.86413133521084     -0.67497143398696      0.06649161632769
  Br          1.22130652137984      3.31330959936240     -0.00091466021162
  Br          1.91940281147919      1.58147963234970     -2.53642181491008
  Br         -1.07614666103329      1.93545447084569     -1.66268712498992
  H          -0.09905358584626     -0.10463837673244      3.01271850332420
  H           1.51107784483066      0.05543148688016      2.46634963015460
