19
Coordinates from ORCA-job NEB_reactant E -39.676442791000
  C           1.67775314071566      0.08314475036376      0.04039211375474
  C           1.14857161050018     -1.13843776092908      0.28929018472768
  C           1.96465128850713      0.49572738737441     -1.32940496369859
  H           1.90597283009850      0.76063762687682      0.84410203735115
  N           0.75612465189474     -1.54977973878902      1.53541329488728
  C           0.07472939534943     -4.68156677116077     -2.56752727362694
  C          -0.23608092007650     -3.51275567144945     -2.03679091756755
  C           0.16235962328785     -3.11637706623316     -0.64862261167167
  O           0.94841107204168     -1.94138726488313     -0.76900308157137
  Br         -0.44248332214260     -5.17736254896007     -4.30862037047668
  H           0.62397617745013     -5.45352079514491     -2.05074756508641
  H          -0.76973169833355     -2.75998845469217     -2.59828153204925
  H           0.74178555310377     -3.91749935364085     -0.16937625663106
  H          -0.73493171283631     -2.90279066358858     -0.05233729963510
  Br          2.64406896385514      2.30964604713437     -1.40144318162028
  Br          3.31508995451968     -0.68246811523262     -2.21258351815914
  Br          0.36642873436426      0.41611039514939     -2.50278059324241
  H           0.80524887460510     -2.53564369164780      1.73750529224913
  H           1.04345578309572     -0.95518831054718      2.29511624206648
