19
Coordinates from ORCA-job NEB_product E -39.694563082500
  C           1.65864377581232     -1.60910496004955     -0.63777484798133
  C           0.96282148765012     -1.34801980337358      0.71932699639827
  C           1.44908687772517     -0.39293798105212     -1.52134838464639
  H           2.73826242145489     -1.70966679981730     -0.47060689944802
  N           1.79754460593382     -1.00321266700965      1.71555888357388
  C           1.12745847492558     -2.95364718615404     -1.17603972872783
  C          -0.09225932332057     -2.91047562610030     -2.02927372198836
  C          -1.25727545587089     -3.38590387685391     -1.62850120132738
  O          -0.22856755615858     -1.47445768239548      0.85620391694793
  Br          2.57797973774963     -3.88274028025313     -2.17357565573327
  H           0.94729225164657     -3.59941833416719     -0.31243273799654
  H           0.02924547956668     -2.51082970154213     -3.02700414054857
  H          -1.39517425936961     -3.79684580780194     -0.64263852301565
  H          -2.12409524716548     -3.34701245085266     -2.26382311083278
  Br          2.42239950116932      1.11910738167840     -0.71495845264796
  Br          2.19755659821275     -0.62753436009979     -3.31044942732158
  Br         -0.40649326176169      0.16477309397197     -1.69518892621409
  H           1.39316371974848     -0.78259719856551      2.61218995629752
  H           2.77841017205149     -0.82597575956210      1.58463600521215
