16
Coordinates from ORCA-job P E -22.157955728810
  C          -1.49197921885839      0.61167231804902     -2.18233499283466
  C          -0.29916024396553     -1.66559007730604     -0.68280782633432
  C          -1.28925833079592     -1.83004452734364     -1.79622168950356
  C          -1.82189816471270     -0.82076430514704     -2.46297423146550
  C          -0.90641088911400      0.78025820422482     -0.78183182400250
  C           0.20954393985617     -0.23241315716718     -0.55581023947826
  H          -1.55298050527565     -2.85119705874175     -2.03325949474592
  H          -2.51501421002772     -1.00304310897061     -3.27201280664582
  H          -2.38483897500533      1.23108045200560     -2.29072690151745
  H          -0.76019312763347     -1.96364096752881      0.26369832179725
  H          -0.76300249756726      0.95518953344036     -2.92326625094375
  H           0.55426428250429     -2.32715521454387     -0.85344012277069
  H          -1.67654221124475      0.60688057779160     -0.02866010814412
  H           0.69158887549175     -0.07851492992629      0.41945999327417
  H          -0.51707206230212      1.79187652781009     -0.65564511514261
  F           1.21052333865064     -0.01735426664629     -1.48998671154226
