16
Coordinates from ORCA-job R E -22.053889891220
  C          -1.54036530995317      0.12295680385335     -3.03588365606221
  C          -0.04004109742430     -2.13306516838938     -1.69324908038336
  C          -1.36013351822786     -1.98900715656200     -1.74395947488266
  C          -2.08169160967980     -0.90368065079196     -2.38900423348940
  C          -0.62445424355266      1.37311051086180     -0.14602192285008
  C          -0.00476949445910      0.37298378736793      0.44022579000629
  H          -1.98648181797225     -2.73219616424950     -1.26567209661431
  H          -3.16051469410260     -0.96406649284941     -2.31360108718453
  H          -2.14838755540652      0.89025543558436     -3.48342228429563
  H           0.41652816099930     -2.96633742202810     -1.18735140093972
  H          -0.47606381814744      0.23508022017839     -3.14751719698783
  H           0.63555152105066     -1.42979806615112     -2.14796952284052
  H          -1.68392622828599      1.49800007436925     -0.03599028941079
  H          -0.45399703516124     -0.38863603534128      1.05996818035944
  H          -0.09213411303928      2.08616400006855     -0.74954490033891
  F           1.31965085336224      0.19136632407913      0.31626317591423
