19
Coordinates from ORCA-job NEB E -40.195438226560
  C           1.65542886156480      1.17310904577508     -1.43270044045362
  C           0.72537411683048      1.56759498038785     -0.57009250577158
  N           1.28629296052107      0.50512789887247     -2.67600234387157
  H           2.70942602705684      1.32995136837604     -1.28133231694634
  Br          1.32894678448486      2.39347340185955      1.06683302088824
  C          -0.46406798211806     -0.85675119899416      1.44470720310947
  C          -1.27290568295263     -0.38336331778423      0.51032294770127
  C          -1.45550356204301      1.08255786229758      0.25143859762944
  O          -0.57168961748211      1.51912370767712     -0.79192200658558
  C          -0.21661624854880     -2.30870282071619      1.68681783755604
  H           0.07667992879715     -0.20459660921830      2.11780230258560
  H          -1.78888417596012     -1.05707288481180     -0.15752273558583
  H          -1.27389163124367      1.67211632045369      1.15770508845626
  H          -2.45170684447469      1.29881730509278     -0.13597771826345
  O           1.12793626452091      1.20240175190839     -3.64297076032251
  O           1.18785035292373     -0.69424656691583     -2.63009887620060
  F          -0.95098376071619     -3.10387780541470      0.85069915397053
  H          -0.49169676804072     -2.58218214620378      2.71338739548749
  H           0.84001097688016     -2.55348029264158      1.51890615661675
