19
Coordinates from ORCA-job NEB_product E -40.213664334840
  C           1.54974988984791     -1.59418328933726      1.71224557745196
  C           1.06374276363539     -0.23270301332289      1.29455032505146
  N           1.60475803899722     -2.50409104413676      0.52811872762986
  H           2.57037772828148     -1.52371121326011      2.10810881437296
  Br          1.29607292080443      1.05139037542352      2.75563216824840
  C           0.60484342017269     -2.18332236969135      2.79203169400160
  C          -0.84059180612878     -2.03131894346086      2.40193568352016
  C          -1.70673486699716     -1.33032718573633      3.10825452009005
  O           0.60655742256856      0.11935999467108      0.27116427773549
  C           0.95725680306257     -3.65624759440277      3.05395622747401
  H           0.78476606538823     -1.63387793638434      3.72336225157201
  H          -1.13749481921325     -2.53997471194370      1.49521493258725
  H          -1.42570926007920     -0.82111159539406      4.01597252593388
  H          -2.73669259923422     -1.24604588888207      2.81038721088713
  O           2.65989493076131     -3.05880823398374      0.35100776358233
  O           0.60986397998922     -2.63303843506585     -0.12934627743763
  F           0.41815490234058     -4.03184835833932      4.25202309745420
  H           2.04017765048534     -3.80701982786107      3.13258664681574
  H           0.53490683531766     -4.32222072889213      2.29389383302913
