15
Coordinates from ORCA-job NEB E -30.799457342230
  C           0.55426716014265      0.35752775588197     -1.34329140601598
  C          -0.64039692946800      1.02462493485135     -1.11029169034673
  I           0.42896224353172     -1.48108626150882     -2.35943337443308
  H           1.43507560528129      0.92702699016932     -1.60601326499213
  F          -0.47748346536698      2.35923148002161     -0.80557514462841
  C           0.81676826230263     -0.10913571624700      0.65429274382481
  C          -0.37321671711768     -0.77391212168650      0.94606309532768
  C          -1.56980159478805     -0.03772167362228      0.94515078999398
  O          -1.69757431731757      0.49110509681979     -0.71848566303330
  C           2.04235324986909     -0.82431596580253      0.61238771892029
  H           0.93168428720677      0.92594008622784      0.96668908662363
  H          -0.41315125924151     -1.84488540885928      0.80317424401674
  H          -1.57083128557269      0.94919912645152      1.39413083254051
  H          -2.50229493525801     -0.57288100043181      1.04875320401076
  N           3.03563969579635     -1.39071732226518      0.57244882819123
