15
Coordinates from ORCA-job NEB_reactant E -30.826765079740
  C           2.01383765667847     -0.46250550793701      0.30136247083276
  C           1.22580130785208     -0.06540545722682      1.29230592456323
  I           2.34803961031197     -2.41169440544527     -0.37572039260959
  H           2.51898029755813      0.28730118921623     -0.28018835247415
  F           1.12044266045186      1.27211353189468      1.45811141128749
  C           2.97219589253555     -3.05108172396980      3.24194339312435
  C           2.18923865655778     -1.97543177899227      3.28475127385381
  C           0.80050621157990     -1.93270498160091      2.73326168821423
  O           0.46020708291560     -0.65606414222420      2.20965667331307
  C           4.26537428796896     -3.05897867506344      3.80175584577425
  H           2.65636473108961     -3.97591003535594      2.77665834766000
  H           2.53244029809147     -1.06060759492445      3.75109449883891
  H           0.07869819962368     -2.07113115279037      3.54748868954032
  H           0.63599238399307     -2.72203836541059      1.99167863210790
  N           5.31648072279188     -3.07166090016987      4.25803989597342
