20
Coordinates from ORCA-job NEB E -52.020626078520
  C           0.33782063055697      0.29282779146532      1.27187612230085
  C          -1.05295317982461      0.24359158263571      1.05764247500412
  Br          0.98100831425427      1.95558848581941      2.00248494103979
  H           0.79746443061316     -0.53958517955403      1.79322864416169
  C          -1.76418604157098     -1.11349081782547      1.15146085197020
  C           1.06801681558155      0.34883709530030     -0.53876452566025
  C          -0.03155652248151      0.51909041252502     -1.39873054527182
  C          -0.89663390723473      1.59059799870877     -1.11676202647753
  O          -1.64179902770401      1.12923130752988      0.35528564789400
  C           1.96681359368372     -0.83761925128248     -0.73459502586946
  H           1.65899931634679      1.24776848897287     -0.37388638355203
  H          -0.44833855449802     -0.35369952793391     -1.88829748176155
  H          -1.77812165674664      1.70926205148410     -1.73095861724314
  H          -0.45363280977403      2.52694625381181     -0.79488836177132
  F          -2.93880574884115     -1.00167650330687      1.77264605830518
  F          -2.01231578593469     -1.61727129821993     -0.06925714427330
  F          -1.04729625025612     -2.02515024364451      1.81937703266375
  Br          2.87652577374612     -0.62928804810194     -2.47316898997373
  Br          3.36133372875430     -0.90486630911994      0.63540612210123
  Br          1.01765688132960     -2.54109428926410     -0.74009879358671
