20
Coordinates from ORCA-job NEB_reactant E -52.068898511410
  C           2.37590355205010     -1.11069794990723     -0.36698119932095
  C           1.37385883355940     -1.23098322254424     -1.23610128831420
  Br          3.97434001498236     -0.13452185362071     -0.54340425041958
  H           2.31169939432481     -1.60228667978699      0.58952908768304
  C           0.16564222310433     -2.06800663737499     -0.82651177431437
  C           4.46119575130355     -0.77520147059405     -3.86107295171918
  C           3.19777227844058     -1.11991633903786     -3.67172375480915
  C           2.13165639950483     -0.15107652168581     -3.26349981847523
  O           1.12541211052868     -0.76818172562091     -2.47700551110310
  C           5.55798723768049     -1.67456568313173     -4.27551724917409
  H           4.78538355983474      0.24685355098335     -3.70493030386328
  H           2.85289993927247     -2.13577438423392     -3.81490383656244
  H           1.58478383344439      0.17691078639285     -4.15509355702425
  H           2.54827912791779      0.73025804871090     -2.76756416612748
  F          -0.96375172759602     -1.36002100144517     -0.89488564135005
  F           0.01983321217677     -3.12339809213834     -1.63472439314795
  F           0.25227826387854     -2.54354578633387      0.41973238851958
  Br          6.33897807896014     -1.00824167184163     -5.95953910613053
  Br          6.97053478451577     -1.64250472492249     -2.89702383899240
  Br          5.03731313211627     -3.52209864186714     -4.55097883535439
