23
Coordinates from ORCA-job NEB_reactant E -51.674375991570
  C           1.33035392107542     -0.56435431895272     -0.07117765793535
  C           1.96646315543010     -1.56959268274312      0.55775250913680
  C           1.93740185497145      0.35652530891856     -1.04210055372147
  H           0.28508108106234     -0.37974796187989      0.12201254956544
  C           3.40452029304913     -1.93419488041311      0.38522944010640
  C          -1.21186294208977     -3.16752868343934      3.73159439063150
  C          -0.35679832138820     -3.31606142859726      2.73310136239258
  C           0.00677763352716     -2.23394712353021      1.76972821613220
  O           1.37266044878328     -2.39340205995927      1.44159388151410
  C          -1.55230057029187     -4.31080700395900      4.63948470940024
  H          -1.71854831307426     -2.24107283653325      3.95267352638386
  H           0.13238932369977     -4.26435433075390      2.55678706864396
  H          -0.17690714510858     -1.24349680670903      2.20473120707557
  H          -0.61140864542372     -2.34478534011095      0.86490368524649
  Br          0.61169132503485      1.64167314469031     -1.68118810264701
  Br          3.43453790156715      1.42546981208406     -0.28859477451354
  Br          2.65376558735083     -0.55624505873897     -2.65606578650184
  H           3.62451670539926     -2.78087068374828      1.02940269176748
  H           4.05413017980460     -1.10461065140390      0.65744932905424
  H           3.61768457033254     -2.20883175947409     -0.64609119013647
  F          -0.48747059683853     -4.75293066381291      5.33056754366741
  F          -2.48382963854587     -3.97701696536487      5.53899338777402
  F          -2.02614780832709     -5.37561702556887      3.96811256696336
