23
Coordinates from ORCA-job NEB_product E -51.668616037970
  C           0.95652193628101     -1.55957916744964      1.17136479462792
  C           2.04416634934334     -2.67151002043670      1.29271385103872
  C           1.44849607025889     -0.12057239119554      1.30730259076751
  H           0.58974282452927     -1.66612435923567      0.13773891055202
  C           3.37520068283622     -2.44770284040332      0.64528490129932
  C          -0.27005165978264     -1.91811319010804      2.05391886349539
  C          -0.81593881758132     -3.27768535031421      1.67241399665851
  C          -1.46658776798032     -3.48649299010112      0.54395560394489
  O           1.75720644764201     -3.71345447485459      1.80997787973935
  C          -0.02807087919153     -1.84953914104112      3.56362037134761
  H          -1.05951640364898     -1.18002130326207      1.86262003424963
  H          -0.64534983473684     -4.07822532554983      2.37395942702020
  H          -1.65418837754098     -2.70187910233076     -0.17227074522023
  H          -1.84559098449984     -4.45986463942387      0.29192321935059
  Br         -0.02688735156889      1.17854742131037      1.44536300265712
  Br          2.65157295221058      0.17483360283513      2.81808691691988
  Br          2.39193177562206      0.44115927629413     -0.32682866838446
  H           3.97393633149987     -3.34304595854668      0.79759710528198
  H           3.90779781269486     -1.60036787565625      1.06897529556496
  H           3.25285556894496     -2.27918221860571     -0.42306789042687
  F           1.12214190578960     -2.37698691359905      3.98487903993958
  F          -0.03826185131115     -0.57722328168963      4.00567438787986
  F          -1.00892672981016     -2.47026975663581      4.23049711169654
