87
Coordinates from ORCA-job A2S E -119.453240010340
  Ru         -0.45658235381487      1.95410344611136      0.06615305331828
  H          -0.53385446361913      3.50271666378971      0.04043321776229
  N           0.82847055188969      2.17564729335330      1.67883359996672
  C           0.36422689468032      2.57781727264682      2.87693452233228
  C           2.14788746735382      1.93686222689116      1.55830656831549
  C           1.19128127285345      2.72118824655175      3.98112018122405
  C           3.02348476788746      2.06717025375443      2.62798603558020
  C           2.54555678623792      2.45567083802344      3.86663757166078
  H           0.77086666009799      3.04571310510593      4.92113092097608
  H           4.07157261468455      1.85757796264151      2.47965823390563
  H           3.20654593945213      2.55750768516856      4.71307077717754
  P          -2.03606053585423      1.97168323873242      1.71435355850361
  C          -3.63191858406784      2.99688397978099      1.58701995361437
  C          -2.42059324279204      0.35384786502584      2.65469296444977
  P           1.48110391209148      2.04956927786790     -1.08063775996170
  C           1.94397381179421      0.99582580670649     -2.49094811042599
  C           2.22101383077772      3.63406869246598     -1.60760455756100
  C          -1.08699792862933      2.92707755197667      2.98323347560068
  H          -1.20070867782489      3.97597975626504      2.68079984674199
  H          -1.45758851167666      2.81198064456805      4.00521312306854
  C           2.66887924938209      1.50784825697482      0.22562210321198
  H           3.68850603685977      1.87263590794016      0.06494696907172
  H           2.67707405969840      0.40895603262968      0.17854930288952
  C          -1.63912355442262      1.79779899991245     -1.33300879197894
  O          -2.41783700604417      1.70352466443904     -2.18777890232070
  H          -0.23796384966720      0.40825129572835      0.12743870042035
  C          -4.15248702070715      3.56609079440830      2.90799142247243
  C          -3.33134204681356      4.17374019512639      0.65610296357379
  C          -4.69792012003357      2.13492945787763      0.90890334581556
  H          -3.44713313811896      4.27298947274375      3.33870260144503
  H          -5.07964667260757      4.10471554577425      2.71149469390839
  H          -4.36682864398586      2.79829513833866      3.64183123133116
  H          -3.03071111430916      3.81713597654505     -0.32692665606098
  H          -4.22276721997326      4.79086310603947      0.54549067553536
  H          -2.53186762431563      4.80157780971548      1.04407484930479
  H          -4.26296892240202      1.61833063623641      0.05209846584874
  H          -5.12148438333364      1.40254179913635      1.59145867722081
  H          -5.51169077465976      2.76398505392750      0.54892893878711
  C          -1.07231958280438     -0.15427319358401      3.17517959397877
  C          -3.37949548672864      0.44512712959956      3.83944391824563
  C          -2.94648134427818     -0.65487264453556      1.63272206768756
  H          -0.69944510598854      0.45383235365398      3.99784677256043
  H          -1.17701283289673     -1.17660285791119      3.53662375153084
  H          -0.33249885587065     -0.16370591418324      2.37508794070811
  H          -4.39622697150647      0.66163649031826      3.52428930589159
  H          -3.39312840777842     -0.51873387589176      4.34938327832204
  H          -3.05890415651022      1.19399543037000      4.56121784134223
  H          -3.97463832891876     -0.44855324368991      1.35073545512088
  H          -2.32675443229127     -0.62075175280469      0.73657759520382
  H          -2.90165161978514     -1.66188149465249      2.04538925507935
  C           2.64133829163248      4.54218218001571     -0.64026385829498
  C           3.13991702186244      5.77609766345105     -1.01182075173879
  C           3.21054664111818      6.12053471190501     -2.35236179822544
  C           2.77098889158764      5.23076472446464     -3.31829020256928
  C           2.27320602122188      3.99402300302932     -2.94964386801671
  H           2.56866779391602      4.28091420987001      0.40879356328236
  H           3.47128510479063      6.47419812498747     -0.25596087899957
  H           3.60012926840656      7.08554126066236     -2.64213403694058
  H           2.81348772568328      5.50317014759926     -4.36307355652526
  H           1.92282456521015      3.30062572970346     -3.70242797409992
  C           3.26742150086194      0.67142957633060     -2.77075436676301
  C           3.56650913715090     -0.11905597212681     -3.86511506225487
  C           2.55381633203785     -0.57683452794360     -4.69391385533378
  C           1.23570237375588     -0.24519488012156     -4.42655076624624
  C           0.93191590777385      0.53633432552806     -3.32542915665323
  H           4.06176176036853      1.03653143158955     -2.13635425050357
  H           4.59403861015580     -0.37850326756332     -4.07602833773201
  H           2.79394674039283     -1.19195758510718     -5.54908139527671
  H           0.44585497778971     -0.59844238240385     -5.07345174238112
  H          -0.09324410963534      0.79614191212618     -3.09165098780413
  C           1.56412468254852     -2.18744402044388     -0.06810769899633
  O           2.61957369717786     -1.60754485462037      0.09692499413155
  C           0.81894165338418     -2.75824686493806      1.08138972151285
  C          -0.46693453459643     -3.28344968324481      0.96991400579788
  C          -1.08936244892942     -3.83419290545854      2.07495623137147
  C          -0.44452662877998     -3.86505684422265      3.30140606800490
  C           0.82699966477894     -3.32808406489629      3.42676658741680
  C           1.45134972774271     -2.77762222125610      2.32526508845821
  C           0.96903375621544     -2.36334883326172     -1.43630342710645
  H          -0.99164213838172     -3.25465662660643      0.02845750786591
  H          -2.08358252367778     -4.24695629890931      1.97959596296316
  H          -0.93432888075195     -4.30333855046416      4.15920387196351
  H           1.32897654795219     -3.34215192455506      4.38314260202804
  H           2.44433527264718     -2.35927397603598      2.40234687431830
  H           1.70360836581882     -2.08937100101298     -2.18947293140714
  H           0.11682780679775     -1.68993556761421     -1.52594676179304
  H           0.63518108326199     -3.38504452606593     -1.59582995584977
