87
Coordinates from ORCA-job A3S E -119.417853673040
  Ru          2.05331846947907      3.47489185256070      0.07413319223898
  H           3.41571067303057      4.11201809804120     -0.07626670430473
  N           2.76556652483693      2.39972148722335      1.72202575739849
  C           2.93094452501293      2.96962589302483      2.92325991503459
  C           2.99709283981836      1.05102132984592      1.57119160674450
  C           3.19745610361587      2.24350497338578      4.06401144831142
  C           3.23652146119083      0.26217221884633      2.73609152701408
  C           3.32104813100896      0.84936811402431      3.96072207954197
  H           3.32154950140654      2.74049192885276      5.01275808840691
  H           3.36239004320838     -0.80284821031965      2.61060952569225
  H           3.50605073336251      0.25916192986679      4.84651079052397
  P           1.67570804051380      5.07788697668473      1.70495771014405
  C           2.24141947056572      6.86622234839807      1.41714462055513
  C           0.04107917095968      5.09382398907462      2.68528675375426
  P           2.94244879477698      1.65578988097495     -1.03088164771058
  C           2.22645327867719      0.88709520424780     -2.52033543533220
  C           4.69624712600342      1.75675880035112     -1.56841640642625
  C           2.87574488593304      4.47244969766547      2.96844594158582
  H           3.85572337569840      4.84669312232013      2.64731723853825
  H           2.67007296193994      4.84448545824413      3.97480797022117
  C           2.94695039734723      0.48667047010215      0.29959645332285
  H           3.31382713440298     -0.52172029217768      0.15361074475128
  H           0.85575429008261      0.17388629749252     -0.10569728636419
  C           1.39409681821403      4.42855683889920     -1.35223028474799
  O           0.97506822360041      5.06297135232107     -2.22443698508809
  H           0.51605750094660      2.45275162865440      0.15808798633199
  C           2.68445374236442      7.60554966064932      2.68088204743320
  C           3.43621198216023      6.80668765461489      0.46188573063569
  C           1.12022450089337      7.62713561357595      0.70880130374815
  H           3.53351801628259      7.11345010106221      3.14896608060881
  H           2.99805501510273      8.61175554599595      2.40374703619275
  H           1.88958640883886      7.69895091390561      3.41156379994538
  H           3.14323553431399      6.37210837282099     -0.49317891492023
  H           3.81293715236386      7.81309426934225      0.28403288976069
  H           4.24928255524721      6.20968665816668      0.87141664246649
  H           0.73102854310337      7.03229847131718     -0.11733011620809
  H           0.30647092996898      7.87545099057297      1.38503741007470
  H           1.50791290057849      8.55932957996703      0.29995952168197
  C          -0.03341494056852      3.71736471397709      3.35170882211972
  C          -0.12779355137156      6.15215908333267      3.77075291489163
  C          -1.08942223379811      5.20845844271571      1.66119225801294
  H           0.60605318931924      3.66217890330507      4.22982225755801
  H          -1.05384352305625      3.50166439308039      3.66640559218481
  H           0.26755460181338      2.93046720489008      2.65988146415194
  H          -0.21773298743127      7.15266157347987      3.35737547922877
  H          -1.04516283670874      5.94017517553835      4.32073628163308
  H           0.69531218386719      6.12918768465560      4.48189545394058
  H          -1.18356447230893      6.22130171718004      1.27945003044378
  H          -0.89474840752847      4.54396863264757      0.81768534239196
  H          -2.03999001311550      4.92391502128514      2.11106761168556
  C           5.60503561383999      2.22159364555737     -0.62051566534160
  C           6.95435714447128      2.27377369728232     -0.90536418530415
  C           7.41586440713921      1.85657564769586     -2.14456783968039
  C           6.51994267194159      1.38937182721015     -3.08982397657137
  C           5.16543382047130      1.33556602207268     -2.80672154081907
  H           5.23540645752224      2.54698979428157      0.34468277329533
  H           7.65077708599963      2.63830861574802     -0.16359477888511
  H           8.47150057946335      1.89569214419297     -2.37097301448121
  H           6.87591800791417      1.06239822313193     -4.05653348651675
  H           4.47760993922209      0.96928159056897     -3.55535014355706
  C           2.09760125044032     -0.48540380948277     -2.68485199124670
  C           1.58650717157478     -0.99293925756530     -3.86532099123449
  C           1.20452731827936     -0.13787677252482     -4.88596642293051
  C           1.33969083711246      1.23211513668601     -4.72951957240626
  C           1.85164380922596      1.74231655006388     -3.55106105829579
  H           2.39094010394081     -1.15584551272108     -1.89085746141137
  H           1.48441223755431     -2.06147483483072     -3.99085573344388
  H           0.80183620327629     -0.53949432743389     -5.80459987393485
  H           1.04467085788701      1.90093883250648     -5.52539929798232
  H           1.97275728268258      2.81071175892624     -3.41534437740602
  C          -0.34835933850442      1.72948002419854     -0.12555271502923
  O           0.16534336366193      0.55471164034674     -0.68198244886424
  C          -1.12791706319267      1.42323156909043      1.14085988616328
  C          -2.41666809827046      1.89149826902814      1.36254607665376
  C          -3.09568660431235      1.55878875212699      2.52271004001088
  C          -2.50122530443448      0.75448143975283      3.47840255484677
  C          -1.21625615775784      0.28408756736233      3.26858362623155
  C          -0.53801940915407      0.61516520216343      2.11103669698310
  C          -1.16665378817570      2.38600787001453     -1.23425384908170
  H          -2.90447149934808      2.51769148344179      0.63316443564797
  H          -4.09834729349830      1.93067572279232      2.67711227679919
  H          -3.03427279671591      0.49611936734047      4.38130412945118
  H          -0.73701015810628     -0.34041156919134      4.00777253202815
  H           0.47103762185304      0.24847698440379      1.97567858829601
  H          -0.53771552016456      2.46759281882902     -2.11899402752481
  H          -1.51949269001497      3.37567953131253     -0.95838664167003
  H          -2.01138282978711      1.74566258893794     -1.47852406258856
