87
Coordinates from ORCA-job TSA2R_3R E -119.413015410070
  Ru         -0.44965298952318      0.27086031246482      0.04862635571669
  H          -0.54818721005975      1.79107250057848     -0.05679605101382
  N           0.91348331276716      0.63115295043217      1.63970705663028
  C           0.49748394718944      1.14770183577814      2.80000578166917
  C           2.22512512232320      0.33804377963055      1.47102987642685
  C           1.35402277340006      1.34368673558033      3.87107331168816
  C           3.13215610754873      0.50681208489031      2.53023310479269
  C           2.69565068315141      1.00182613079290      3.73370699310421
  H           0.97938812277649      1.75920891473353      4.79344515198888
  H           4.16631583257407      0.23967342887022      2.37828376007990
  H           3.37973801737911      1.13660786338942      4.55811141335415
  P          -1.96942560916542      0.51517117808752      1.76935342520329
  C          -3.51320385344694      1.59922825461180      1.55795601574695
  C          -2.38827900632660     -0.97395976351472      2.87722921720278
  P           1.54331687772229      0.45181707682404     -1.07831813762304
  C           2.10923602982912     -0.14228524870404     -2.70388571831915
  C           2.07796009357654      2.19017666378044     -1.33547755331760
  C          -0.94062396881161      1.56002067666835      2.89528028445239
  H          -1.01888873207893      2.57921698375868      2.49774369365901
  H          -1.29311731725669      1.55859438263297      3.92953483805794
  C           2.62101558920673     -0.22838466470973      0.19887040881464
  H           3.69239818505421     -0.25442847818833      0.01240843253367
  H           2.20860941474541     -1.50418108200986      0.37901918737491
  C          -1.63163931939021      0.10879647199275     -1.34721495769427
  O          -2.38643141839184      0.12792689487188     -2.22497602618482
  H          -0.17565937510060     -1.51742100926041      0.13312680057132
  C          -3.95619976541697      2.33083666389982      2.82643926572782
  C          -3.18227038189476      2.65149166529073      0.49693247724434
  C          -4.64839176506849      0.73117199939022      1.01430971605125
  H          -3.21298105366067      3.05828379766130      3.14348887418392
  H          -4.87656050648407      2.87323554472983      2.61105274339039
  H          -4.15638413437437      1.65633915517739      3.65086943441934
  H          -2.95310164355667      2.17794289139400     -0.45575757367573
  H          -4.03743487797297      3.31213653839801      0.35939415153657
  H          -2.32757077878160      3.26069103593137      0.78494857457652
  H          -4.27996625986977      0.09813969974180      0.20667659003500
  H          -5.08470875416380      0.10672358322598      1.78934285990399
  H          -5.43918457694099      1.36407295058013      0.61356531914428
  C          -1.03015161524909     -1.50447304673206      3.35255811134360
  C          -3.25127648888683     -0.71273758578207      4.10879780674714
  C          -3.06065460889672     -2.02119944204259      1.98564821274096
  H          -0.59226484836810     -0.85265068657199      4.10716187397038
  H          -1.15159585366200     -2.49056127086429      3.80092144359020
  H          -0.32043577053300     -1.59822037110877      2.52923212916382
  H          -4.27389498258022     -0.46011347446742      3.84188469066948
  H          -3.28513625447015     -1.62250566027506      4.70872273331984
  H          -2.83810391902406      0.07704187534738      4.73319409708607
  H          -2.94573067022644     -3.01690424679595      2.41130043931130
  H          -4.12416000714992     -1.82971768653009      1.87542417413483
  H          -2.60808678790453     -2.01395677907196      0.99231160335697
  C           3.24098317186570      2.71454960445697     -0.78899449602706
  C           3.58745794697118      4.03319994090501     -1.03102167419399
  C           2.78008065428766      4.83133608558617     -1.82207187454147
  C           1.61529571225223      4.31260379042909     -2.36729114872102
  C           1.26459984352361      2.99957863198668     -2.12329279628166
  H           3.87461679879900      2.10089904885345     -0.16406710805153
  H           4.49178826905406      4.43795884137321     -0.59905388457251
  H           3.05430895596586      5.85929843738189     -2.00964095638320
  H           0.98026791947840      4.93711481197551     -2.97879431759555
  H           0.34707312552059      2.58703330841004     -2.52373796447575
  C           3.42850458588078     -0.49590237159806     -2.95629680287518
  C           3.82725315584387     -0.79182639938392     -4.24649875246948
  C           2.92050362370975     -0.72168844719610     -5.29099121252645
  C           1.60566039840957     -0.36512765926917     -5.04349838715813
  C           1.20048585877340     -0.07704239283531     -3.75389770563447
  H           4.14352719198786     -0.54667740326633     -2.14911547651888
  H           4.85282540126879     -1.07209077526598     -4.43996805309970
  H           3.23958251869003     -0.94716282096704     -6.29805980776858
  H           0.89595791428599     -0.31310306705059     -5.85604480611841
  H           0.17285581842837      0.19231017824383     -3.54424081553438
  C           0.45410276433081     -2.60110637455888     -0.00563344390976
  O           1.56808465641484     -2.57143757622416      0.71725952279563
  C           0.64906005657587     -2.77668215246703     -1.50261282988128
  C          -0.40746125751988     -2.64721402936028     -2.39462266317762
  C          -0.23399849150517     -2.94748824679761     -3.73166421670199
  C           0.99549241985806     -3.39035592158305     -4.19210787864324
  C           2.05024818701514     -3.52685333781927     -3.30886681142650
  C           1.87684487019634     -3.22414677035008     -1.97040856474544
  C          -0.47587613986623     -3.73083813208037      0.46196646564186
  H          -1.37472509649854     -2.31586726088884     -2.03961688761879
  H          -1.06234182229668     -2.84107539247280     -4.41706038200275
  H           1.12770782235672     -3.63095198739213     -5.23691841181668
  H           3.01053277320138     -3.87539054511501     -3.66062810926659
  H           2.68651420682116     -3.34747936028191     -1.26558624565806
  H          -0.62800116120913     -3.67868277087077      1.53553948804340
  H           0.02649716510028     -4.67052118438662      0.23616179160027
  H          -1.43085482252774     -3.71117232462839     -0.05511919557253
