20
Coordinates from ORCA-job NEB E -39.748830338000
  C          -0.54588300155745     -0.85953974221388      1.10897017835550
  C          -1.87748673126488     -0.75086016826988      0.69724315295730
  N           0.03817911973135      0.21536473967518      1.85670913152646
  H          -0.14933476794819     -1.81802457824395      1.42070478939353
  I          -2.84155021530017     -2.67659663315308      0.34287313950286
  C           0.37648218148726     -0.52639594076599     -0.75808085928905
  C          -0.22446640635344      0.71056092689063     -1.04471387026725
  C          -1.56727687062628      0.76997388170377     -1.35969425197042
  O          -2.42481879219095      0.25239790009990      0.25974810057605
  O           1.67240312914734     -0.73359518442440     -0.53135045656309
  H          -0.06638182490685     -1.42861838213064     -1.17283436040867
  H           0.26945713782478      1.61939841798107     -0.73634974301021
  H          -2.03837114192318     -0.04484774153683     -1.89083058272384
  H          -2.03595663203474      1.73325851933819     -1.47540884230122
  O           0.89321954692483     -0.10318824018456      2.65954979011793
  O          -0.33181651811340      1.35176072262839      1.65440978914264
  C           2.53319113653200      0.37233444410342     -0.30114551691059
  H           2.58818782942205      1.00710831271658     -1.18899486871115
  H           3.50979854618818     -0.06078492423855     -0.09702670331793
  H           2.22242427496175      0.97029367002462      0.55622198390113
