20
Coordinates from ORCA-job NEB_reactant E -39.777708058390
  C           2.10360643016559     -0.30713926307779     -0.62549331103780
  C           1.27472706261937     -0.56153839571655     -1.65294173553676
  N           2.62789040084240      0.96228131002250     -0.28121824977357
  H           2.44915752462404     -1.10542390638794      0.01131287674099
  I           0.49253530731317     -2.52310196181015     -1.81272764834357
  C           3.65939720799972      0.15599577636741     -3.57594540582068
  C           3.02631918905402      1.23985263783435     -3.13089463149484
  C           1.53115081171727      1.34343398471957     -3.10593442590790
  O           0.87620987700871      0.13530991575931     -2.68319977963470
  O           4.97677059731354     -0.08725661039527     -3.60523280628201
  H           3.11735335683299     -0.69579054279109     -3.97128435259504
  H           3.55892857905179      2.09175605435687     -2.74182392876589
  H           1.11175238638996      1.50963118167928     -4.10324125906220
  H           1.23087426310681      2.16433774508037     -2.44488825632499
  O           3.74011418806829      0.98148543473284      0.20774853406173
  O           1.93273373474481      1.94765609210261     -0.45611435107915
  C           5.84163675563206      0.89458699189990     -3.07076082650953
  H           6.84613883868658      0.48691802701205     -3.15988231545208
  H           5.61540351639803      1.08543857373809     -2.01766972692638
  H           5.77299997243086      1.82906695487363     -3.63450840025565
