20
Coordinates from ORCA-job NEB_product E -39.773624369310
  C           2.74499962373693     -0.41692011320514     -1.51693831998069
  C           1.26223972890674     -0.29660910737103     -1.38107979358532
  N           3.41585444645395      0.28308346857702     -0.39118789701135
  H           3.07661687234959     -1.46053911292359     -1.48755156983389
  I           0.23713575641894     -1.73792235534121     -2.63856068991182
  C           3.19933748297585      0.18748836248900     -2.91276423314500
  C           2.63807412135956      1.57019935142653     -3.08845030032203
  C           1.81156591610143      1.87743583589640     -4.07076245946721
  O           0.64059627083765      0.45296620988427     -0.72059987824436
  O           4.58118577464478      0.04496450615997     -3.07247073891342
  H           2.76577098760295     -0.48205432282392     -3.66896849356128
  H           2.92380479263884      2.30473046740324     -2.34917877132974
  H           1.50861435366584      1.15530775085954     -4.81204050348813
  H           1.40735662564857      2.86924714703544     -4.17281871459789
  O           4.18994084102526     -0.38047520313278      0.25157372949801
  O           3.14439353796280      1.44083003868050     -0.20211110473974
  C           5.41747738367455      1.14086665645409     -2.75109846044128
  H           6.42766533077771      0.78453492221634     -2.94062932529444
  H           5.34043104361883      1.44342906532734     -1.70436394138275
  H           5.20773910959922      2.00043643238799     -3.39359853424766
