19
Coordinates from ORCA-job NEB E -33.161812300560
  C          -0.63579377658929      0.39131916507681     -1.15877929313031
  C          -1.35785837478921     -0.79572045291331     -0.95913687373574
  N           0.47871840852495      0.35117148379597     -1.96430394129336
  H          -1.19535640792865      1.31800644463418     -1.22544443671297
  Br         -3.19129140594067     -0.50730372352073     -0.27795423735526
  C           0.00273078736037      0.44812028447984      0.81113038595119
  C           0.65291297739934     -0.77532068356812      0.91258772895811
  C          -0.09968248136130     -1.95826956569191      0.88861440412710
  O          -0.83391545526026     -1.90484412905776     -0.72319200007023
  C           0.77902807035747      1.73651737311794      0.86430239696015
  H          -0.97961070197707      0.55160606888146      1.25734277860623
  H           1.70072255575692     -0.82040277088105      0.64700445110779
  H          -1.03368497513597     -1.98257944680793      1.43680005586285
  H           0.41951466029183     -2.90385262889717      0.85206255197672
  H           1.07165955149410      1.16642136504280     -1.95050636772121
  H           0.99665683836274     -0.51567892112832     -1.91650489918633
  F           1.96195520737448      1.65510697541044      0.16658235239872
  H           1.04552132803968      1.97144174836758      1.90216936863925
  H           0.21777319402051      2.57426141365926      0.43722557461731
