19
Coordinates from ORCA-job NEB_reactant E -33.182594446320
  C           1.37041247899675      0.16239635442215      0.37850123685286
  C           1.76890307354045      0.64571325670471      1.55712961375353
  N           1.31781603630891     -1.18353273836326      0.07662636436089
  H           1.11892265374229      0.84041966757522     -0.42151379751456
  Br          1.94538518566036      2.55892377370742      1.75124758957534
  C           2.55800269768061      1.45273722241327      4.95085377085307
  C           3.54503657635640      0.85756673766630      4.30524613981471
  C           3.36354670579308     -0.07556365825105      3.14586792927838
  O           2.02734826833990     -0.11253223097949      2.64713833683241
  C           2.73937732889973      2.38809610748334      6.09980177123684
  H           1.52707981816939      1.30338496380018      4.66295863303642
  H           4.57322461845331      1.01249567613054      4.59890879855483
  H           3.58969668244709     -1.10048914475376      3.46579366876376
  H           4.06103888456717      0.18960471427497      2.34085356446054
  H           0.60649491057570     -1.45301494719137     -0.58424772080810
  H           1.37262943892067     -1.78976906023174      0.88245194944136
  F           4.04632458242519      2.45686192194504      6.51265428222876
  H           2.15039114469586      2.06233188201748      6.96618307625352
  H           2.44016891442713      3.40616950163005      5.81944479302545
