19
Coordinates from ORCA-job NEB_product E -33.195296905980
  C           2.02229244586007      1.25995816219586      2.26977726587775
  C           0.62427825152900      1.83477085472740      2.27349904595215
  N           2.04922839294827      0.15007141918000      1.34245070181662
  H           2.73809505530865      2.01322156166938      1.92239713025636
  Br          0.25181103079425      2.82070854846044      0.59623072588134
  C           2.41136735859313      0.78229888698377      3.68163711176280
  C           3.71552972726874      0.04022955092723      3.61377353394542
  C           3.88078845990958     -1.19680085680273      4.03806736002056
  O          -0.25994415029491      1.65997277074965      3.03763511016922
  C           2.52582936745359      1.97576313347615      4.63583469878894
  H           1.62669971471747      0.12480616667333      4.06883998930927
  H           4.53859458111937      0.60479086702147      3.20074195557431
  H           3.06855880875783     -1.77095615512944      4.45360957823836
  H           4.83515671362373     -1.69059550556466      3.98606429392473
  H           1.88515130585054      0.45054876857799      0.38853779421462
  H           1.37802844862397     -0.56645310603752      1.59408828037869
  F           3.41095134479813      2.90334749126574      4.14608696964930
  H           2.90693852918581      1.65532678743251      5.60996456771559
  H           1.56644461395277      2.48779065419343      4.75896388652396
