31
Coordinates from ORCA-job P E -37.976849049280
  C          -1.39535137692619      0.26099206888983     -2.27051528778882
  C          -0.12096602616955     -1.77338920027287     -0.93888854915683
  C          -1.58271891602869     -1.91565282157179     -1.20947067382674
  C          -2.20153720725995     -0.92823801286500     -1.83697341901478
  C          -0.55133646257953      0.74764873947476     -1.07262791894162
  C           0.13895021777578     -0.39662907474942     -0.30309630725630
  H          -2.09566304221135     -2.80230127352840     -0.87139230227409
  H          -3.25795363795056     -0.96563447360675     -2.04485229800678
  C          -2.23295230381511      1.37890691947079     -2.93751029753395
  H           0.24692133823772     -2.55790466990466     -0.27845083024397
  H          -0.68317582017954     -0.09169193509182     -3.03047770597319
  H           0.43366094419908     -1.83726471136327     -1.88142119364180
  H          -1.19845855570883      1.29356280365108     -0.38732116013200
  H          -0.25352377699837     -0.43296866709159      0.71797368579593
  H           0.20798745934346      1.44037127628626     -1.43684558942008
  C           1.63953132878704     -0.13472541247124     -0.20610707998909
  C          -3.34796483676947      1.89205231235618     -2.02299920741039
  C          -1.33274281635408      2.55821391779365     -3.32512442887350
  C          -2.85337939671307      0.82084723197340     -4.22454867502301
  H          -2.94063414310115      2.35914526156667     -1.12995349944265
  H          -4.01069824272166      1.08810369986868     -1.71560327451602
  H          -3.94078543121629      2.63759147748817     -2.54867814868476
  H          -0.97771512184400      3.09164960075066     -2.44748747372910
  H          -1.88991832351010      3.26217182339492     -3.93961130906520
  H          -0.47291576178883      2.21648185152043     -3.89776366782325
  H          -3.50584535839166     -0.02304325618424     -4.01970109618908
  H          -2.07564873305494      0.48935930780817     -4.90953361867018
  H          -3.44104133048798      1.58884463044324     -4.72281653170713
  F           2.24890456192060     -1.08031593845780      0.58473040204517
  H           1.84843692840496      0.83570370977602      0.25705009853987
  H           2.12097384311226     -0.19167718535404     -1.18852264204665
