31
Coordinates from ORCA-job TS E -37.869325535150
  C          -0.33673752720717     -0.21814439512110     -0.50970532461593
  C           1.09371003827302     -2.39087551335795      0.73023121754867
  C          -0.26109496379876     -2.35869055558687      0.64678049077746
  C          -0.96068369343572     -1.30272241193764      0.02576468720486
  C           0.65324381026548      0.44439460375714      1.50041049443629
  C           1.45564225512820     -0.54287562942313      1.97705164832296
  H          -0.84181286456010     -3.05754392939133      1.23433015926727
  H          -2.03558368919135     -1.29285558558112      0.14444976526513
  C          -1.08221481296106      0.92320669524971     -1.16707103934202
  H           1.58582902207757     -3.16246126644770      1.29864757884895
  H           0.69087608966540     -0.31164894386197     -0.82442970559986
  H           1.70651056376982     -1.90997914594564     -0.01018065497592
  H          -0.32839911456912      0.58828871623954      1.90926651317471
  H           1.14062776919014     -1.14673777922158      2.81329421908865
  H           1.06934696726882      1.25219088795196      0.92710457482953
  C           2.94154867056325     -0.46789016794245      1.77190527621467
  C          -2.16010995214786      1.52162866960541     -0.25915268762151
  C          -0.10904194425281      2.03050350821768     -1.58292555994084
  C          -1.74749863014121      0.36201839409010     -2.43597285346766
  H          -1.71320080078155      1.96766715329456      0.62562652722427
  H          -2.87242450811167      0.76511655204298      0.05772226961986
  H          -2.70534845698070      2.29719251094616     -0.79311859904907
  H           0.34553143152078      2.49902430675648     -0.71329782064124
  H          -0.63449362162505      2.80205682977906     -2.14177973282567
  H           0.68135185745981      1.63202931866541     -2.21582019003267
  H          -2.47133040846502     -0.40752123600353     -2.18123372820086
  H          -1.00085915618813     -0.07687726415934     -3.09416440053496
  H          -2.26011338873615      1.15558487315773     -2.97575225528015
  F           3.56317608035027     -1.67332178344666      1.99363787625688
  H           3.38855009000756      0.23228844192151      2.49229506955165
  H           3.20500288761331     -0.15304585424741      0.75608618449653
