17
Coordinates from ORCA-job NEB E -42.292569774080
  C          -1.54924125493511      0.88589006446616     -1.53416537917235
  C          -0.36916852284355      0.42528955538921     -1.91359189618892
  Br         -1.78741286428041      2.91370899483204     -2.26716274306292
  H          -2.81015417134685      1.93253767960050     -1.96982097608048
  F           0.63152171681829      1.09043859143893     -2.56955390056015
  C          -0.05666856904269     -0.44450374698463      1.14624304708542
  C           1.06388682352135     -0.76855000317730      0.52147720177157
  C           1.14803135231646     -1.07718433740419     -0.94013211427027
  O          -0.06420927814756     -0.86175567675961     -1.64334321329326
  C          -0.11044927582415     -0.14005644009903      2.60793966447513
  H          -1.01209593968753     -0.38801492039360      0.64535448624307
  H           2.00491919687364     -0.82173306918670      1.05203203161806
  H           1.37145260179259     -2.14015551975685     -1.07674540013619
  H           1.96526359436845     -0.49522078777434     -1.38812739701275
  F           1.09882661051237     -0.01212633808238      3.17315103561700
  F          -0.77280905341923      1.00235595461113      2.85709562468013
  F          -0.75169296667606     -1.10092000071933      3.29934992828692
