17
Coordinates from ORCA-job NEB_reactant E -42.434355921270
  C           0.91303111534177     -0.08269522980698      0.81994766144518
  C           2.03921064997349     -0.69040430395976      1.17378041236855
  Br         -0.61600534705279     -1.09184894954997      0.41249863746980
  H           0.82592764532649      0.98408944036451      0.73756971868053
  F           3.11935744922962      0.05405105158908      1.48395407224782
  C           2.19042593648989     -1.98821686335172      4.05899639081999
  C           3.27013478422605     -2.36917907646509      3.39650968620364
  C           3.34695530895075     -2.51245742191144      1.90904342102408
  O           2.21359520714481     -2.01191356865156      1.22376606368899
  C           2.16202057597249     -1.84943129441637      5.54788200987343
  H           1.24635398880395     -1.75986924446391      3.58705806337764
  H           4.18742999088481     -2.60185621008293      3.91917803941606
  H           3.38551625302701     -3.57386193462550      1.64449962725542
  H           4.26403050698131     -2.03168743542823      1.54484612204670
  F           3.33800010679319     -2.11915913852718      6.13021648706408
  F           1.82333188157907     -0.60423670844103      5.92414645787408
  F           1.25858394632808     -2.67062311227194      6.10840712914402
