17
Coordinates from ORCA-job NEB_product E -42.450664223130
  C           1.85369469554145     -0.47742338639814      2.43222315166435
  C           0.43368147224005     -0.04071503909879      2.68891399114543
  Br          1.90205929167736     -0.75977051232249      0.48826859903354
  H           2.56649245789662      0.32466669526048      2.63903369641827
  F           0.32465397040970      1.30250333195704      2.61249976511639
  C           2.20335852169620     -1.77471122305097      3.16440250150247
  C           3.45286571858687     -2.41958486249971      2.62485260030797
  C           3.49855825420289     -3.66796580111806      2.20347848483902
  O          -0.50909549213016     -0.71692680745495      2.88621501059497
  C           2.42334507339523     -1.44701916727031      4.64355301142254
  H           1.35571942325648     -2.46801636116616      3.10621822789118
  H           4.32831217097955     -1.78519489162331      2.60995627266620
  H           2.63213161139276     -4.30793109717151      2.21587772637484
  H           4.40868108543268     -4.09615979267689      1.82365089292309
  F           3.47510640991363     -0.63342016539234      4.82221427200831
  F           1.37163359081381     -0.82419191733318      5.19552473203097
  F           2.64990174469489     -2.54523900264071      5.36501706406048
