24
Coordinates from ORCA-job P E -27.678391499370
  C          -1.19477941268969      0.33278823520294     -2.40824506722285
  C           0.12293192770903     -1.55839045165666     -0.92508049100320
  C          -1.05172769555143     -1.99596070453425     -1.73883827848673
  C          -1.69295624105932     -1.08432024858677     -2.45232472999693
  C          -0.97969081462697      0.75659488696253     -0.93822139722573
  C          -0.24720758171663     -0.31055854022454     -0.10741261642683
  H          -1.35180961251777     -3.03275800927981     -1.71530653296244
  H          -2.55236391610384     -1.32121079202255     -3.05912491507612
  N          -1.99860886112121      1.32759780163788     -3.10707360478217
  H           0.46183852993590     -2.35054945371373     -0.25675125149211
  H          -0.20467546099119      0.35479810116873     -2.88541764084590
  H           0.95129636403782     -1.30737918969895     -1.59577495547638
  H          -1.95189540976792      0.95751696839020     -0.48987657433571
  H          -0.88692375178923     -0.62760031333185      0.71801481230516
  H          -0.42593008750826      1.69526770676311     -0.94000086748934
  H           0.66150242546144      0.10845059851954      0.32718903856130
  C          -1.75999349238598      1.34558478872140     -4.53345833065392
  C          -3.41821378175333      1.28635438998071     -2.82417748400914
  H          -0.69786502013754      1.49703975927314     -4.72242056527053
  H          -2.30996355697284      2.17965743177482     -4.96903893532581
  H          -2.07749774341307      0.42043216529603     -5.04059447506997
  H          -3.58395053498839      1.15272921261636     -1.75850285106533
  H          -3.94822790430974      0.48559333270723     -3.36174694114713
  H          -3.85672836773984      2.23952232403449     -3.12359534550218
