24
Coordinates from ORCA-job R E -27.597452594660
  C          -1.57704135268622     -0.30341156868183     -2.95061533425651
  C           0.02053462749551     -2.51236777037078     -1.64635880201288
  C          -1.29460793233502     -2.31830999041415     -1.55490667795424
  C          -2.08390479691465     -1.29745069774820     -2.19956987588886
  C          -0.48209410252244      1.43969989444546     -0.40630674648807
  C           0.20528676218453      0.45805436029163      0.13802241102616
  H          -1.86391452190543     -2.99069077215683     -0.92331515515653
  H          -3.14869584254416     -1.36229816937254     -2.03203161824328
  N          -2.27219457782466      0.64901414305716     -3.64349214838841
  H           0.50774579430323     -3.30634377326523     -1.10712159280573
  H          -0.50765800243150     -0.23571734130851     -3.08727767691586
  H           0.65912381436589     -1.89865782770028     -2.25743936644435
  H          -1.54644393880342      1.53357041420475     -0.26740015601499
  H          -0.26386219381834     -0.30082013965080      0.74057095014215
  H          -0.01421809690078      2.19705126212903     -1.01445313994380
  H           1.26911769765723      0.35973337376237     -0.00206438085960
  C          -1.60486484233828      1.87308445546939     -4.00619574486665
  C          -3.70039834151268      0.75397638559436     -3.48306104758847
  H          -1.72202498300705      2.64835145472665     -3.23775363646589
  H          -2.01986460928249      2.25283953242478     -4.94253050485294
  H          -0.54282785385535      1.68498923968881     -4.14910596283158
  H          -3.98281675963523      1.12696132740877     -2.49026077666082
  H          -4.15684737146051     -0.22332004265672     -3.63303903065556
  H          -4.09239857622815      1.43706225012274     -4.23581398587328
