24
Coordinates from ORCA-job TS E -27.584729272580
  C          -0.03274996556151     -0.16037143873466     -0.60683861489520
  C           1.59486232901636     -1.90274672050218      1.01866624776322
  C           0.28524438201051     -2.16854132576162      0.72512588545459
  C          -0.51972710723315     -1.30934021434030     -0.03905817047512
  C           0.66456261771788      0.79605019545078      1.51301256326262
  C           1.39122688001161     -0.12958441311297      2.19263483411848
  H          -0.22039708489281     -2.95377614947167      1.27210462745111
  H          -1.58168662776728     -1.50480795592490     -0.05134846380441
  N          -0.77885578408947      0.81885659662506     -1.19229651623444
  H           2.13379474578368     -2.57165415988046      1.67188837147971
  H           1.02460264713717     -0.07052101713325     -0.79431135879193
  H           2.21466773150715     -1.36414880249106      0.32328505145624
  H          -0.38552754152882      0.92731701598230      1.70038205072751
  H           0.93706917868909     -0.66992002896921      3.00666373645390
  H           1.14137190427718      1.55083938775217      0.91298030704422
  H           2.46461923423700     -0.04406078728011      2.23754720347486
  C          -0.19922290126049      1.69930006490777     -2.16975400784825
  C          -2.21548233773035      0.80618550243406     -1.12665225690667
  H           0.88527735767664      1.68681716818822     -2.08461050734926
  H          -0.54910515017338      2.72233645104712     -2.00665646341557
  H          -0.46944881852863      1.40358970639935     -3.19171056593436
  H          -2.53447739359566      0.49697840474639     -0.13226249570915
  H          -2.66057197239364      0.12805576682200     -1.86594553081832
  H          -2.59004632330909      1.81314675324718     -1.31284592650378
