24
Coordinates from ORCA-job NEB E -36.988222964800
  C           0.46288362835340     -0.42895144586234     -0.41693437081710
  C          -0.62289041297683     -0.64300820610886     -1.29631197577678
  C           0.42688825769301     -1.12430137592339      0.92505229713354
  H           1.44441062881573     -0.45950644663121     -0.88831337917581
  C          -0.41746519764910     -0.50459166522940     -2.68531221773755
  C           0.17155396038174      1.40683919545024     -0.06728908520913
  C          -1.13848133944724      1.41640237031161      0.42325478841940
  C          -2.18583688718681      0.94003261642274     -0.45419933665019
  O          -1.85491612781906     -0.51318479495372     -0.80614799658806
  C           1.29193006040197      1.90945223705508      0.81612928621220
  H           0.32063031382805      1.76215335699775     -1.08447578412956
  H          -1.28819782682659      1.34358792592853      1.49000073387094
  H          -2.23386756566523      1.44933090018097     -1.41919801094103
  H          -3.16894854212114      0.87505732395124      0.00282963309664
  C           0.87957604877641     -2.57338981547580      0.75442970426796
  H          -0.59169162472221     -1.10632885589593      1.31529037632361
  H           1.08041841296476     -0.62974682746756      1.64209094748570
  H           0.22825320900233     -3.09684618791183      0.05799587764848
  H           0.84752878503347     -3.08572494951146      1.71266050984644
  H           1.89798460089919     -2.61938451791029      0.37303154981430
  N          -0.23884928628161     -0.42838854541625     -3.81921030198124
  F           1.05125240974074      1.68140607268753      2.14571786949278
  H           1.38906381734697      2.99583929945218      0.70100289207795
  H           2.24877067745802      1.43325233586018      0.57790599331650
