24
Coordinates from ORCA-job NEB_reactant E -37.011648908800
  C           1.85363342084788      0.24228515489547      0.00861664459175
  C           1.40170119397693      1.03434401613045     -0.97568915535757
  C           1.93465619286814      0.45093194301593      1.48950140920790
  H           2.21193829381585     -0.72385083297243     -0.32359357438812
  C           1.46999538955634      0.48699877122128     -2.29229225386136
  C           2.33750918324613      4.09286298618632      1.78479183945039
  C           2.05930103104925      3.67795619068824      0.56019403409473
  C           0.74673261962928      3.07891949640510      0.14713426730886
  O           0.84480577252157      2.27895674337937     -1.00902687718916
  C           3.63216174422323      4.71939706743826      2.19249444009320
  H           1.61924436951707      4.00719172351969      2.58939814257725
  H           2.78823310885414      3.77778814415710     -0.23231006573396
  H           0.06982399110826      3.88639594734603     -0.16034328775169
  H           0.27461198065070      2.53404184289307      0.97288311971347
  C           2.96967638945780     -0.48116549384822      2.11339183260759
  H           0.95650423736527      0.24144927328830      1.93820297988508
  H           2.19847019585049      1.48231936186773      1.72665159184105
  H           2.71414744355919     -1.52155514020842      1.92563023119878
  H           3.01558517397478     -0.32771149852963      3.18911816144525
  H           3.95476638325077     -0.28708994842505      1.69546923565389
  N           1.54013959376750      0.01966599930512     -3.33571835908100
  F           4.51876120952423      4.79625783406254      1.15149604007396
  H           4.11963549917514      4.13300399302244      2.98232130634041
  H           3.47276558221006      5.74380642516126      2.55277829727930
