24
Coordinates from ORCA-job NEB_product E -37.015901536250
  C           2.42191879534318      1.72477922923857      0.13403730209343
  C           1.74605522634797      1.71669281133556     -1.22264807099400
  C           1.94130344443265      0.47889013343258      0.90978989233206
  H           3.49551513994247      1.59080606477091     -0.05014858505016
  C           2.10557271796224      0.54430257573451     -2.00859571109110
  C           2.18401121789703      3.08739538524927      0.83389001671395
  C           1.30587697616962      3.00556171510566      2.05167894575323
  C           0.04786677253550      3.40259609594381      2.06799651252171
  O           1.00198546253848      2.56023600003047     -1.65160702937061
  C           3.50828724520039      3.76568775651643      1.18988635893030
  H           1.68759490047097      3.74163398994080      0.10644805824186
  H           1.77554721720880      2.61842198948288      2.94505100435684
  H          -0.43395990519083      3.79427056849635      1.18684405906952
  H          -0.55538603389272      3.34480274415401      2.95781006987414
  C           2.95806011366824      0.01346569574376      1.94458599646789
  H           1.76917063883868     -0.33811562715737      0.20287556406742
  H           0.98727292710231      0.70643644499292      1.38872604490234
  H           3.87165944530067     -0.31872515037248      1.45658349955306
  H           2.55189004244299     -0.81955824716479      2.51292194313826
  H           3.21518635374431      0.81045012854741      2.63479758218252
  N           2.41742192701965     -0.35599049090454     -2.64302819369560
  F           4.24190547204231      3.00523661743185      2.06797516929202
  H           3.32990884286080      4.72749795331684      1.68116924646889
  H           4.13543506001427      3.91202561613458      0.30376032424202
