18
Coordinates from ORCA-job NEB_reactant E -40.294508972950
  C           1.77057840222471     -0.23255374142626     -0.03840288574013
  C           1.65296246694054     -1.56136857981687     -0.11629261968418
  O           2.07560285928419      0.57301639249002     -1.09717013492901
  H           1.61532573016113      0.25572869760264      0.91221231267331
  C           1.31426741812616     -2.42731904747182      1.04560022246475
  C           3.66251452086232     -3.37806707128325     -3.89860058219614
  C           2.52326982151654     -3.04320401472562     -3.32138685278348
  C           2.39691621744780     -1.88733661933631     -2.38103469358072
  O           1.81586748697992     -2.39114915637785     -1.18836685786781
  Br          3.80566655276415     -4.81668060657131     -5.10863305145592
  H           4.59251039623057     -2.85151066715518     -3.75120610607797
  H           1.61802061996732     -3.60860082070420     -3.48794213355305
  H           1.74424553966311     -1.12151391701680     -2.81817409679075
  H           3.37459248932357     -1.44153067271216     -2.16730599418522
  H           2.12894612362747      1.48882924737094     -0.80677832381958
  Br          0.87228323618354     -1.50514015008677      2.67587078444139
  Br         -0.20408769409606     -3.56481216295063      0.56773777437116
  Br          2.84391781279300     -3.61198710982858      1.41157323871336
