21
Coordinates from ORCA-job NEB E -33.287101121360
  C          -0.13555885039475     -0.09555458604706      0.62972146865014
  C           0.25568345735378      1.80966175270471      0.54030927072721
  C          -1.61643032361143      0.14908371612043      0.88874786316596
  H           0.43877563028039     -0.35548730624708      1.51253149794241
  O          -0.38643580277576      2.63220747328569      1.39724551203587
  C           0.08003159861985     -1.07832611692426     -0.48922714130840
  C           1.04151134808045     -0.05736289475933     -0.98576929512691
  C           0.58305333174886      1.15303775504423     -1.66459219821760
  O           0.00907071666998      2.13738389281182     -0.71312533797155
  C           0.66961303885018     -2.43364292671034     -0.13524090357410
  H          -0.78273403015087     -1.21637509688567     -1.14236620029087
  H           2.00348233225113     -0.02984313319710     -0.50060221163254
  H          -0.23600590506657      0.96947063623397     -2.36704590602365
  H           1.39905346035397      1.66501424998798     -2.17657784791570
  H          -1.79094100942134      0.78965271825820      1.74932818835921
  H          -2.09913955133187     -0.81314284477196      1.07160918761459
  H          -2.09449606852744      0.60546547928955      0.02441841016755
  H          -0.04900961114236      2.48126820518127      2.28990103184221
  F           1.73231339944661     -2.30717312219878      0.72487773079774
  H           1.04754917942107     -2.94311650918355     -1.02823009267850
  H          -0.06938634065390     -3.06222134199273      0.37408697343694
