21
Coordinates from ORCA-job NEB_reactant E -33.413786719500
  C           1.48703524605454     -0.27696473180088     -0.13292435937961
  C           2.35462819189276     -0.07456154021450     -1.12294971334094
  C           0.01972501700374     -0.47732034440262     -0.34002743587411
  H           1.84733790432424     -0.28059787726205      0.88513644018636
  O           3.69783828362429      0.10264818985535     -0.92939770761600
  C           3.18486381345549     -2.51180204869555     -2.97763597055537
  C           3.59152709930688     -1.40740658910738     -3.57855055479898
  C           2.95658881579502     -0.05935329569853     -3.41170429208152
  O           1.95335242889509     -0.00895055634854     -2.41605299206089
  C           3.82234963316693     -3.85304953456411     -3.14508040137835
  H           2.33743799108482     -2.51041536885693     -2.30665823820034
  H           4.43839722999937     -1.42543801583854     -4.24947711228200
  H           2.44101259425650      0.22175854886589     -4.33662965643470
  H           3.73604680085738      0.68571971572390     -3.20933235332597
  H          -0.20209807633087     -0.51703422848442     -1.40184814368427
  H          -0.54706023422152      0.34047121298026      0.10540377528541
  H          -0.30904036964187     -1.40417195280090      0.13024646274720
  H           3.88852878067202      0.06959804514985      0.01320852111752
  F           4.87880266598676     -3.82328353577784     -4.02042711246304
  H           3.10278214165041     -4.57982920259144     -3.54331233335210
  H           4.21524404216800     -4.22261689013101     -2.18908682250831
