19
Coordinates from ORCA-job NEB E -34.092860965920
  C          -0.64684804706153      0.86443974836186     -1.22191275013375
  C          -1.30705513259057      1.31890701799692     -0.08464394810303
  O          -1.38813117282717      0.22144992784579     -2.17755625636563
  H           0.20754086063290      1.43130804090589     -1.57626948486370
  Cl         -0.30275041390267      2.50606878036684      0.82999196201670
  C           0.30595494253905     -0.80705971737450     -0.30232596274671
  C          -0.23259390785865     -0.86966390715294      0.98481052775956
  C          -1.60554802344243     -0.96332636320336      1.13322964655243
  O          -2.18970550225032      0.73486140447784      0.54848420986606
  O           1.61009628203013     -0.62619791228620     -0.59839302840144
  H          -0.15743874782947     -1.42249706665710     -1.06687905972250
  H           0.34250799291688     -0.47771158472289      1.81148643594753
  H          -2.03652419490250     -0.94420100629090      2.12021531323222
  H          -2.18652174306443     -1.47060032220630      0.37886267052868
  H          -0.85140212978056      0.07614184433827     -2.96426994936025
  C           2.43881406974350     -0.01010775357665      0.37197199585701
  H           3.38153904738808      0.19462113902345     -0.13188376669227
  H           2.61787524111380     -0.68088781306133      1.21648432500104
  H           2.00019057914595      0.92445554321531      0.72859711962804
