19
Coordinates from ORCA-job NEB_reactant E -34.124333684560
  C           1.73654980011544     -0.34159329164523     -0.04967429238685
  C           1.66663648557234     -0.16845755905322      1.26960054784967
  O           1.43615661306896     -1.53243623608788     -0.66680260387065
  H           2.03638355879850      0.48562208811660     -0.67400004169771
  Cl          2.04999179341925      1.40775727211662      1.88685929467494
  C           4.04171874610199     -2.73222579066470      1.08195537818839
  C           3.33944043151481     -2.38482657745665      2.15429186348739
  C           1.84439013796704     -2.36467587342127      2.15007995820372
  O           1.33574657881173     -1.02575307338363      2.25217102431773
  O           5.38103510696282     -2.76183485251431      0.92242399773029
  H           3.55344081050132     -3.07126171192754      0.17753597289957
  H           3.80636394880221     -2.03030202362156      3.05989565044897
  H           1.43790140377442     -2.85431856722626      3.03822067472146
  H           1.45096872479298     -2.84265043911553      1.24893914553787
  H           1.57518285111025     -1.44027292335860     -1.61415404493289
  C           6.17542826121091     -2.33471904148714      2.00591351100843
  H           7.20846523329239     -2.41679257140414      1.67328942215205
  H           6.02093015438911     -2.97044979600088      2.88296820232111
  H           5.95646935979355     -1.29580903186467      2.27038633934650
