21
Coordinates from ORCA-job NEB_reactant E -42.865571683750
  C           2.12429169780233      0.52968639946987      0.20545697939966
  C           1.49474117544003      1.24091661956924     -0.75746819591213
  N           2.16940219256337      0.73378944732311      1.59801447637832
  H           2.70296790351234     -0.32995975452751     -0.09680115142635
  C           1.48914610143507      0.70943667588854     -2.16143151889389
  C           3.00930830247044      3.89629560141324      1.83577246786690
  C           2.49829450079102      3.62695678156427      0.64175959048757
  C           1.06049333611946      3.32346416339795      0.37741032509859
  O           0.89615746914691      2.43065109222498     -0.71236300604297
  N           4.40401164374125      4.21629777397912      1.97973706770412
  H           2.45674609986467      3.90732791895371      2.76264777921234
  H           3.15726267713823      3.62916701686324     -0.22032790130058
  H           0.55199160771755      4.23784120466853      0.05067437254045
  H           0.57149479297554      2.94226643366916      1.28268973996752
  O           3.15226830278808      0.32363169273707      2.18404395361136
  O           1.21525395892937      1.25982933938923      2.15498152431871
  H           2.35468748837550      1.09128158906432     -2.70132238092566
  H           0.59632934522479      1.06333404840942     -2.66992834466176
  H           1.51861947272881     -0.37444979806655     -2.17573705882967
  O           5.10633190244496      4.15224453682253      0.99440295114573
  O           4.77460002879026      4.53859121718651      3.08398833026172
