21
Coordinates from ORCA-job NEB_product E -42.864755749450
  C           2.76340651445572      1.84798591955373      0.00924423194474
  C           1.46005111809230      1.57204123972793     -0.79490079668708
  N           3.02456668876015      0.64387241303679      0.86495985994011
  H           3.60511599381644      1.89387537858246     -0.68974307929813
  C           1.67815813808938      0.69993093893170     -1.98457600045342
  C           2.67231144190206      3.13241177332549      0.83290941827105
  C           1.50430225397397      3.25183664487827      1.76764279701800
  C           0.77200193589292      4.34618825845432      1.84971249781188
  O           0.41095369962051      2.03197773147729     -0.44944121285253
  N           3.95992713797718      3.31021162596476      1.61144425147664
  H           2.65068404423430      3.98061588585312      0.13540585276843
  H           1.32247036070543      2.40660274436972      2.41259521942867
  H           0.94607354808205      5.20515908400039      1.22269520093091
  H          -0.04227832123380      4.42013141764559      2.54720453394826
  O           3.29967869288443     -0.36644410594849      0.27169208994470
  O           2.92489453807664      0.76565238974892      2.05386576135925
  H           2.27645283196011      1.23153461814489     -2.72279175960853
  H           0.72393937550706      0.42545062705440     -2.42526384618582
  H           2.23039445078033     -0.19322589748707     -1.69298776448633
  O           4.91951827437436      2.69881434623795      1.21125665465411
  O           3.93587728204847      4.07937696644785      2.52857609007510
