17
Coordinates from ORCA-job NEB E -34.600048180380
  C           1.10303130225205     -0.14833541413046      0.40904536205970
  C           0.41772519568362     -1.35566142502996      0.36480490786111
  C           0.77497014421443      0.83152317600050      1.50851494437082
  H           2.15716051214161     -0.17724592786947      0.15288715912129
  F           1.01288716964796     -2.35011954717514     -0.37007734174029
  C           0.19576063748619      0.69898622598061     -1.16565889627966
  C          -1.15001969514787      0.54441516395824     -0.87259128336096
  C          -1.65880309443353     -0.77505929038835     -0.76292358120424
  O          -0.83503158368766     -1.45895988542702      0.50989835521803
  F           0.70579878365039      1.94334963587649     -1.16655854425413
  H           0.69107155411730      0.09095932536797     -1.91708323940725
  H          -1.64682254022151      1.34897581142189     -0.35188823661160
  H          -1.38962405983750     -1.47520628047794     -1.54766854217796
  H          -2.68491545013514     -0.87741959822715     -0.43657378502743
  F           1.59103765611062      0.58393602499347      2.58578117400728
  H          -0.25590653964832      0.71166041443112      1.85524849537256
  H           0.97168000780736      1.86420159069521      1.20484305205273
