17
Coordinates from ORCA-job NEB_reactant E -34.625220781970
  C           1.85757242755314      0.02399250263397     -0.06463900893237
  C           1.15871976861471     -0.12294739408021     -1.18288600809637
  C           2.11591268133732      1.35273733129466      0.56266706014775
  H           2.29567394385059     -0.84529662956795      0.39510289905104
  F           0.97648303145686     -1.35443685706257     -1.70429434378687
  C          -0.35558771446948      2.26454282896292     -4.84344420877910
  C          -0.65196976746066      1.79691960710431     -3.64636743493378
  C          -0.06925891348405      0.53798904859265     -3.09645861572041
  O           0.55209482376106      0.86018001691635     -1.85213313698703
  F          -0.90883448721022      3.38612588093898     -5.31665634753262
  H           0.31611131554528      1.81086978300296     -5.55864176609342
  H          -1.33135069581704      2.33344912505303     -3.00183241365800
  H           0.66697069569346      0.11116654905971     -3.78743561853539
  H          -0.86446075146804     -0.20118801887614     -2.92616353070089
  F           3.47217439211727      1.59589986172247      0.63067309320591
  H           1.75357129806434      1.38555371447096      1.59679010671122
  H           1.67527795191546      2.16154264983389     -0.02558072535966
