17
Coordinates from ORCA-job NEB_product E -34.646006919090
  C           1.82864912029506      0.94057692429124     -1.58413991245279
  C           1.44198993020955     -0.49055516199323     -1.34653692373336
  C           1.39047670844867      1.83250150582940     -0.42185610042368
  H           2.91956493457590      0.99723512065786     -1.68318599010848
  F           2.10223015316744     -1.30579109013125     -2.21894690147656
  C           1.20271380315179      1.40075895361634     -2.92580233819902
  C          -0.29690816816853      1.38345781028480     -2.88149966587715
  C          -1.02189363361643      0.36220371456911     -3.29521169671233
  O           0.67472417026386     -0.95385520731933     -0.58547930487324
  F           1.64781956694897      2.68024384409198     -3.17716353862735
  H           1.58686731592661      0.77508862305941     -3.74178296807281
  H          -0.74892771697365      2.27793744358087     -2.47886261767458
  H          -0.57386197189815     -0.52748132771990     -3.70684180933584
  H          -2.09533605557475      0.37190127693137     -3.23291461001128
  F           2.22724189574722      1.63510547403476      0.64317179716602
  H           0.37850526840440      1.58431306227924     -0.08707632998663
  H           1.46744467909206      2.88915903393735     -0.69607108960091
