19
Coordinates from ORCA-job NEB E -30.067699613340
  C           1.05911916668851      0.22428005329228     -0.43842905668761
  C           0.48205064970543      1.34458950749014      0.13448178281071
  C           0.69213511987654     -0.20257863654261     -1.82961669599420
  H           2.08476779331340      0.02825821847640     -0.14530821227173
  O           1.13437728130505      1.90537373323358      1.20428822710269
  C          -0.02911299279125     -1.13932453071449      0.69443206321340
  C          -1.32418485789671     -0.75449815200271      0.38060935216261
  C          -1.75994135574813      0.53021968419168      0.76670555605009
  O          -0.75321828286757      1.65071298237663     -0.04052715579496
  O           0.41442102780558     -2.34716762730708      0.24104574285086
  H           0.40359932634429     -0.80631608027944      1.63478582637769
  H          -1.79303478393277     -1.24142628002707     -0.45964827561332
  H          -1.54294078377390      0.83933237096678      1.78437691221537
  H          -2.73233796463080      0.85019036406950      0.42130205086869
  H           0.66518713750476     -1.28823902909374     -1.90536440505667
  H           1.43310392101449      0.17003910050481     -2.53651216021284
  H          -0.28108269813917      0.19904766006274     -2.09737862263832
  H           0.56104935682834      2.58058700006119      1.59093225692983
  H           1.28604293939393     -2.54308033875859      0.59982481368771
