19
Coordinates from ORCA-job NEB_product E -30.108072779790
  C           1.57197769183370     -1.42672683999497      0.91327956265669
  C           0.94243849657325     -0.05321026352214      1.08878879472170
  C           1.20028338075870     -2.03144971391225     -0.43603972908817
  H           2.66317831445188     -1.34506692467473      0.98626791218984
  O           1.52759453458616      0.71973588216466      2.02561614449781
  C           1.11780837487693     -2.32248742095581      2.09603574752147
  C          -0.33604491064512     -2.68415558333600      1.97684386419081
  C          -1.30693539622943     -2.02488620976506      2.57869374241872
  O          -0.01186073631584      0.33801148018276      0.48595855777284
  O           1.96090112030815     -3.45729967936273      2.09091983272563
  H           1.26934287867077     -1.76394951436930      3.03895472863162
  H          -0.54317739332052     -3.53686696197903      1.34536821629984
  H          -1.11201300779028     -1.16978220937024      3.20488686318612
  H          -2.33947013661258     -2.30095831745572      2.45643001921247
  H           0.12614154230322     -1.97013983930471     -0.58739077099200
  H           1.52013357668993     -3.06896080907926     -0.47384063406533
  H           1.68955181803533     -1.48142456737533     -1.23581774235605
  H           2.30079647146770      0.29862063679581      2.42461996114036
  H           1.58025338035804     -4.13080314468593      2.66402492933562
