19
Coordinates from ORCA-job NEB_reactant E -30.094260187440
  C           1.86818129167780     -0.04610546344728      0.05266868674585
  C           1.17862521522387     -0.39111685307164      1.13883521947794
  C           2.16950080413958     -0.98204246914540     -1.07388272272707
  H           2.23818898272775      0.96499811997416     -0.03137611772008
  O           0.90675386973676      0.47068178405657      2.16884173397482
  C          -0.12814193733655     -4.24216299187894      3.33931203005293
  C          -0.49141732330511     -3.32208275178239      2.45751636200548
  C          -0.02970190191579     -1.90338456590873      2.50640936702216
  O           0.68703535494034     -1.63902211104428      1.30438384739708
  O          -0.51958503276260     -5.53530889885024      3.34175749578546
  H           0.51735537058534     -4.02671226587187      4.17844152008030
  H          -1.13057537366736     -3.57709936889451      1.62311405346835
  H           0.61656847717814     -1.73453623705139      3.37513091747117
  H          -0.88783993459610     -1.22039090660994      2.57362351870387
  H           1.75218997185610     -1.96093306966390     -0.86106583659449
  H           3.24625697782935     -1.07883312057124     -1.21384052942807
  H           1.74460731746591     -0.60977651713211     -2.00637168980831
  H           1.29477252610295      1.32914963741684      1.97123644353326
  H          -1.08207465588039     -5.70892195052369      2.57586570055935
