21
Coordinates from ORCA-job NEB E -46.493056284290
  C           0.53831584178824     -0.51405329126474      0.84754180106472
  C          -0.79242833161158     -0.98722141733904      0.78633574971599
  C           0.83552375187788      0.43350796276489      1.87437180577190
  H           1.32891190955278     -1.25013971761864      0.71398400178320
  C          -1.05573548617647     -2.33827326868186      0.14121068884017
  C           0.56873013829450      0.56414324654519     -0.72093210057217
  C          -0.48096500464436      1.45941555906802     -0.48039345702622
  C          -1.79646905538588      0.92531982261762     -0.37512549535129
  O          -1.78107914611960     -0.15074770230049      0.84259924504651
  C           1.97371364081841      1.11177555423092     -0.85779277811060
  H           0.40657257965298     -0.23198872696171     -1.44286292937980
  H          -0.25353885033985      2.38459146438693      0.02968976875374
  H          -2.11946454611670      0.28238333042807     -1.19040000248850
  H          -2.56870448577112      1.61451654960337     -0.05653258898936
  N           1.06385535126390      1.16031709344250      2.72566226000339
  F          -0.94400242091896     -2.24472183111440     -1.22195537019354
  F          -0.14177832222892     -3.25383818125453      0.52204793395233
  H          -2.06241012880814     -2.71771420671004      0.36510105086571
  F           2.24403975831811      2.08839178458404      0.03008946320954
  F           2.89740904927365      0.14000583668275     -0.66410846383429
  H           2.13950375728113      1.52433013889115     -1.86853058306145
