21
Coordinates from ORCA-job NEB_product E -46.527950489880
  C           2.91111099727641      0.37938135852430     -1.87183031286610
  C           1.61870494407079     -0.39678402360690     -2.08569861373139
  C           3.04957301731056      0.67314385973307     -0.46006958250319
  H           3.74455869258641     -0.28141398495302     -2.15481926873882
  C           1.49532484667352     -1.64132819791416     -1.18257242509790
  C           2.93397479044945      1.65843358884691     -2.74234645087192
  C           2.10790380881697      2.75850199865158     -2.13297690570702
  C           0.97419637044377      3.18698779618795     -2.65222165466995
  O           0.75930401326109     -0.08700908661024     -2.85375259607044
  C           4.37632023925361      2.12690287703688     -2.94396597641815
  H           2.53479911032986      1.39662203686725     -3.72821584854106
  H           2.50331375975879      3.17501224182395     -1.21636912608415
  H           0.56771354631178      2.76607795953826     -3.55671211308724
  H           0.40147426744603      3.96797597382963     -2.18405609930116
  N           3.13227383504138      0.89935018439817      0.65532486576191
  F           0.73603890754446     -2.58197768499978     -1.77117205000160
  F           2.70489294178687     -2.19601800488768     -0.94344499611016
  H           1.03880725979583     -1.37614371341326     -0.21274001715168
  F           4.99962983975612      2.34898138032056     -1.76601131240871
  F           5.09888550346418      1.16848271276821     -3.57745274181032
  H           4.43839930862215      3.04902072785832     -3.54109677459095
