14
Coordinates from ORCA-job NEB E -27.023084073980
  C           1.03280890556437      1.05418827211991      0.13014989230247
  C           0.73310095826625      0.31726335282363      1.25945786843383
  H           1.81520687004079      0.65799718591050     -0.49839498303620
  H           0.98784180138799      2.13020398407170      0.18663519868985
  Cl         -0.10935843669115      1.15260463799795      2.56600054596957
  C          -0.46786231080574      0.50281177970364     -1.10691473129571
  C          -1.10641464804026     -0.55763072369638     -0.48311549032838
  C          -0.27874342883053     -1.59952349881768      0.00794261859805
  O           0.61207562045355     -0.94955829555171      1.24835723757739
  F          -1.17381442843446      1.62790542258123     -1.31295258486640
  H           0.21282408846674      0.33864363064755     -1.93565864613003
  H          -2.01188159600761     -0.32821404774561      0.06294835603227
  H           0.52072951143406     -1.93047340946581     -0.64820921762769
  H          -0.76651290680400     -2.41621829057892      0.52375393568095
