19
Coordinates from ORCA-job NEB E -33.809114604180
  C          -0.79612815655557     -0.88297430344474      0.74494850559948
  C          -1.44105816819133      0.30444693760911      1.10677345113126
  N           0.23121480827893     -1.34856049008572      1.53468360137437
  H          -1.39595804029927     -1.65606438230974      0.27862059150134
  F          -2.66435937525109      0.49129236542825      0.48099104521035
  C           0.04484737563233      0.04385481773407     -0.93967535632823
  C           0.75431622717770      1.07673740994508     -0.34638426604494
  C           0.04874492318901      2.13837759185419      0.24111558780348
  O          -0.86273246244165      1.33120790839348      1.52637802043847
  C           0.75667548915156     -1.10082017193211     -1.60811288162542
  H          -0.90049487985377      0.27158316831533     -1.41747538405258
  H           1.76878836304186      0.88281740100799     -0.02526466660971
  H          -0.81341530385875      2.52997439463136     -0.28286253252472
  H           0.59792053828103      2.87568770830490      0.80657492228786
  H           0.81576023344870     -2.06166547836864      1.12622044082334
  H           0.76145289322260     -0.61287157951076      1.98237079720363
  F           1.85429635519852     -1.51674367334479     -0.88979336739070
  H           1.13086028271998     -0.79029393714017     -2.59174113535563
  H           0.10926889710923     -1.97598568708711     -1.72736737344164
