19
Coordinates from ORCA-job NEB_product E -33.843627356640
  C           2.09214010573686      0.19035473159314     -2.44555243531837
  C           0.76497909031993     -0.43448885936461     -2.79518337640772
  N           1.95577631442650      0.77989026103876     -1.11988425096149
  H           2.84148713649308     -0.62582733205735     -2.48847625379062
  F           0.46689148323779     -1.42340210115960     -1.90425888361084
  C           2.48921698303000      1.28013302384940     -3.46259376761730
  C           3.76597654185960      1.94027528105626     -3.02198109455195
  C           3.86891716688236      3.21449205020930     -2.69735686478825
  O           0.00896499515127     -0.20337182963856     -3.66854270573060
  C           2.68008294404748      0.68360827468602     -4.86097329276184
  H           1.68417870763243      2.01739247152471     -3.51224445064947
  H           4.63056133571143      1.28916171034824     -3.00260794847268
  H           3.01664629499110      3.87321877821251     -2.71485126992540
  H           4.80653320185227      3.65062011680028     -2.39802096444901
  H           1.69780515655028      0.07831508123638     -0.43483169105619
  H           2.82980704694272      1.20670879235071     -0.83507243470648
  F           3.59384358140797     -0.34378567255474     -4.82299711172563
  H           3.08063223529232      1.43551475178576     -5.54762653495773
  H           1.74995967843462      0.26789047008341     -5.25554466851842
