20
Coordinates from ORCA-job NEB_reactant E -46.056973414020
  C           2.63363330721914      0.57735840953451     -1.18281652485775
  C           1.44821218719446      1.15447812970000     -1.38864578876030
  Cl          3.97032569618898      1.22115507139159     -0.32059472919151
  H           2.82435129998198     -0.40461721532675     -1.58445208750079
  C           0.41781532068369      0.40624919570429     -2.22136345211707
  C           2.83402490471096      3.77253045638608     -2.57870252327553
  C           2.77117825812683      3.90912598365886     -1.26524851350841
  C           1.69749821627008      3.32846428384173     -0.39479141078469
  O           0.90725544538397      2.33558465016560     -1.03281927299380
  C           3.90950772582319      4.35815904041897     -3.43435792790589
  H           2.09340521779159      3.21279883366217     -3.13283834077984
  H           3.51885186035044      4.48224253534063     -0.73669739004898
  H           0.97223825869842      4.10745641526126     -0.13440300408806
  H           2.12727730035761      2.93786553371546      0.53328225075553
  F          -0.78349706418636      0.39461567476186     -1.64340628310322
  F           0.26504703596602      0.98337668540344     -3.42444727572377
  F           0.75001272791948     -0.86827361276643     -2.45445023716929
  F           4.81756033556755      5.07918775944118     -2.70318277547898
  H           3.48423480846090      5.04235582927444     -4.17906671588424
  H           4.47106715749106      3.56858634043110     -3.94979799758341
