26
Coordinates from ORCA-job NEB E -47.752655116380
  C          -0.08649925824589      0.46584946249129      0.58303457193108
  C          -1.38097163948500     -0.06447553135792      0.67372799503218
  C           0.06113321884445      1.87823782247519      0.03652791917895
  H           0.54051840676904      0.30662269669978      1.45479829437639
  C          -1.72937347045386     -1.03404251423820      1.78276852102568
  C           0.70567121025104     -0.63946320747764     -0.81070816310629
  C          -0.33230354521546     -1.33696913040645     -1.43251495453115
  C          -1.49679825123787     -0.57481290178724     -1.76310044829022
  O          -2.14777456492172     -0.13416002399987     -0.37856520040983
  C           1.82550507702565     -1.43447925572000     -0.18800669272135
  H           1.07287727239389      0.23022141741721     -1.34201702058666
  H          -0.48241463442621     -2.37543236625453     -1.16975835206165
  H          -2.31598835747832     -1.11505278029525     -2.22476420768410
  H          -1.31105956564123      0.37769330645642     -2.25632040379003
  C           1.48451772772004      2.41130673724868      0.13698361377133
  H          -0.58395170238887      2.51509142389464      0.64875153244791
  H          -0.30595113425749      1.94844540732246     -0.98824005791844
  H           1.81950676294119      2.39474981382886      1.17088889233688
  H           1.51938273937947      3.43795335932746     -0.21939527559830
  H           2.18668375246637      1.82403945357493     -0.44808507471016
  Cl         -1.00789384257446     -2.66981501275761      1.51192248857828
  Cl         -1.14020630395035     -0.44949940399787      3.34418722257271
  Cl         -3.48509405289536     -1.24272655356062      1.86968108199402
  F           2.80120264928406     -0.59896100125016      0.29758039893783
  H           2.30793227034325     -2.07196283596285     -0.93847284607600
  H           1.48134923575363     -2.04835838167071      0.64909616530095
