26
Coordinates from ORCA-job NEB_product E -47.800192074940
  C           2.54957880214634     -1.66995183997208     -0.65679412535741
  C           1.34330328657526     -2.44821948574658     -0.20893212872630
  C           2.05596313014920     -0.23040980590391     -0.92602860310455
  H           3.28744739801640     -1.64868888711719      0.14922739432640
  C           1.23202006490545     -2.66498797322277      1.32169373756351
  C           3.22701292622288     -2.27988889349896     -1.90721043340355
  C           2.36043601012442     -2.24760755275158     -3.13204590383297
  C           2.68639514217883     -1.60983127971206     -4.24047086079733
  O           0.49101156892683     -2.89954623939429     -0.91776234439249
  C           3.66302094871686     -3.72183518527161     -1.63498046060637
  H           4.13535702260984     -1.69813410915114     -2.09325409785762
  H           1.43224420023552     -2.79471060865286     -3.06108114057639
  H           2.04660499790704     -1.61357965492868     -5.10584554741684
  H           3.60759568896533     -1.05698635335166     -4.33368600899404
  C           3.20494290133781      0.76062661997669     -1.05369370762004
  H           1.41211754463678      0.08330005860174     -0.10286908188554
  H           1.45856366420087     -0.23469636482055     -1.83895815072361
  H           3.83019936881953      0.73747266333213     -0.16454272540634
  H           2.80773757233455      1.76598299251309     -1.16694593158721
  H           3.82097518894848      0.54150857693531     -1.92067724716403
  Cl          2.35187258150155     -4.00939722440194      1.68192284538432
  Cl          1.70484240856148     -1.25122058998390      2.27238919734611
  Cl         -0.41466286292921     -3.13475948208486      1.76209510403314
  F           4.59643667507421     -3.75224347948145     -0.62740281251698
  H           4.14028218588939     -4.15479507539185     -2.51989696506215
  H           2.82580158394436     -4.35070082651905     -1.31825000162171
