22
Coordinates from ORCA-job P E -29.027557946650
  C          -1.54180518712031      0.48064688357365     -2.31145098227710
  C          -0.11157736283618     -1.55471048672446     -1.18201275276751
  C          -1.46286439967906     -1.86558026518101     -1.73462445241980
  C          -2.15611105187706     -0.89434638836646     -2.30694489381959
  C          -1.06750529148277      0.80770854955992     -0.87991876839821
  C          -0.14291476003777     -0.27943736712127     -0.29571967736067
  H          -1.83801289017026     -2.87432262942554     -1.66351545228701
  H          -3.13718062486897     -1.02934960439025     -2.73297265832307
  C          -2.47728113302742      1.47902834936996     -2.76452978222679
  H           0.28469397972052     -2.39063174900144     -0.60393802258275
  H          -0.67803596008700      0.49438440344737     -2.99148959151129
  H           0.56979213074874     -1.37398739724358     -2.01960619754427
  H          -1.95380661968377      0.90547432055879     -0.25124296715019
  H          -0.54691421670735     -0.57337278796539      0.67966359451157
  H          -0.54756278359478      1.76564658459764     -0.86145466494990
  N           1.16880767302417      0.27905015515206     -0.00830759000336
  N          -3.23155520091308      2.26354250543684     -3.11504859585555
  C           1.99671026256620      0.66517503742091     -1.13300547029842
  H           1.68767228948180     -0.35535609194614      0.58915060658559
  H           1.44473680018504      1.34808016537428     -1.77654562798533
  H           2.35870513828656     -0.17419819462496     -1.74466569266514
  H           2.86485920807276      1.19543600749907     -0.74302036067122
