22
Coordinates from ORCA-job R E -28.949449995590
  C          -1.88350606979247     -0.03654966462456     -2.79504678848288
  C          -0.10168032714985     -2.34372625022753     -2.02147154588450
  C          -1.42285713269512     -2.29114372404111     -1.86590775065237
  C          -2.27359535616106     -1.16443154463037     -2.17966170723156
  C          -0.61966612144713      1.85588807778533     -0.46703541030553
  C          -0.21046415129735      0.68536755583577      0.01047111209918
  H          -1.93764545782805     -3.15159497266477     -1.45768181171103
  H          -3.31140800409894     -1.26070246009561     -1.88665135012803
  C          -2.77459801256456      1.01476517333037     -3.05717025899534
  H           0.45554016545888     -3.22741947851106     -1.76175202336004
  H          -0.86623185680799      0.12225150312050     -3.12338775650730
  H           0.46720491675474     -1.51729627187506     -2.41226683172158
  H          -1.65497680861890      2.13568532938849     -0.40982889527515
  H          -0.92070072246734     -0.00549437782790      0.44688187518757
  H           0.04502527473385      2.57324395754564     -0.91193696917819
  N           1.08948867915239      0.23194431537773      0.08501670975325
  N          -3.50005599104212      1.87498207284903     -3.28406033807408
  C           2.14957868121277      0.93697104515177     -0.59025937250907
  H           1.18848681877654     -0.77121758058451      0.09796297415856
  H           2.20727936926205      1.95296247960624     -0.19919043179778
  H           2.00278631875544      0.99780350758151     -1.67753535008936
  H           3.09402578786422      0.43421130751011     -0.39174807929477
