22
Coordinates from ORCA-job TS E -28.935464167050
  C          -1.18037550351524      0.33627633338033     -1.22582356464934
  C           0.15947057789568     -1.90648953711066     -0.10770466136920
  C          -1.17305121215705     -1.92527347251262     -0.36636055154156
  C          -1.84761549005399     -0.84609114319022     -0.95744827965866
  C          -0.57063026091459      0.97615881145913      0.72077039260787
  C           0.30156173146505      0.07858405767078      1.29170416448219
  H          -1.77690433868064     -2.72430848546156      0.04286235991089
  H          -2.92809891033274     -0.84837108273634     -0.96213938468112
  C          -1.90323523162725      1.45343511831486     -1.69141616497927
  H           0.61549288650107     -2.69961261924434      0.46275490446660
  H          -0.14769581447302      0.32004612747399     -1.54292517355726
  H           0.83843560622009     -1.29509002418395     -0.67302110980585
  H          -1.57927646857730      0.99881460553686      1.09318415068109
  H          -0.06715285886393     -0.64145351962611      2.00521629461751
  H          -0.20401736045319      1.90964507238917      0.32984304472474
  N           1.67029356987780      0.21838208725263      1.31032486363318
  N          -2.48526672123069      2.37870280056808     -2.04118886144623
  C           2.37903513177853      1.03683887159882      0.35846825332672
  H           2.17565199019270     -0.60562668594442      1.59874005495266
  H           1.94952732898561      2.03742176172171      0.34437330861726
  H           2.35519629338904      0.63388105048128     -0.66200647135051
  H           3.41865505457405      1.11412987216259      0.67179243101831
