22
Coordinates from ORCA-job NEB E -28.510478101130
  C           1.08575053506319      0.05040106934066      0.67561763156257
  C          -0.30146516822588     -0.07464282078070      0.80363686248685
  H           1.54273721106055      0.95554945759609      1.04579766626502
  H           1.69462976704031     -0.83114913221073      0.81660584836168
  C          -0.96458582130404     -1.43110000396079      0.71477286924426
  C           1.25696602493988      0.45111836690406     -1.19122689284742
  C           0.44515065395185      1.59984795302803     -1.29915635859368
  C          -0.92293592440267      1.49622492509951     -0.99705560047976
  O          -1.03176030363408      0.97707178033756      0.62470007149197
  N           2.64992099162028      0.53161319677509     -1.36031086272920
  H           0.84753065387176     -0.47987111875783     -1.57329469385155
  H           0.92865893256420      2.55521420027842     -1.13757256213961
  H          -1.46886424671421      0.67146359034346     -1.44391480926267
  H          -1.49457426741972      2.41299368982809     -0.96137759418929
  C          -1.95788826466187     -1.62240447087119      1.86009873138281
  H          -0.20960861128714     -2.21776985068661      0.73395376689740
  H          -1.50831100356871     -1.49222198937757     -0.23506144028705
  H          -1.43654730864499     -1.62651657556893      2.81464426256199
  H          -2.49434268599616     -2.56240400865241      1.75124286046466
  H          -2.67530855119085     -0.80549867264612      1.86382651736931
  H           2.99355684476224      1.48037307803467     -1.40232287006871
  H           3.02129054217605     -0.03829266405276     -2.10360340363956
