22
Coordinates from ORCA-job NEB_product E -28.553696303330
  C           2.21863670805938     -0.30669042126125     -1.57564007136575
  C           1.04849445398533     -1.26547847661659     -1.46584976778020
  H           1.95058834495053      0.63359395103210     -1.09174224084345
  H           3.10861872203712     -0.72354272896280     -1.10350890698281
  C           1.41452967730333     -2.71570367896111     -1.64561319485245
  C           2.52159052691914     -0.02129990977301     -3.06315413976634
  C           3.37845391714594      1.21171878671735     -3.17132618818324
  C           3.04576450100568      2.29629230488585     -3.84495772798825
  O          -0.07817544119443     -0.87355755649346     -1.29162788442916
  N           3.15941212901709     -1.18860575844575     -3.66421533036502
  H           1.57474575753746      0.14284320850818     -3.58902488849111
  H           4.33616976716985      1.14519331637870     -2.66866326599968
  H           2.09713923179714      2.37813634118676     -4.34974087102689
  H           3.69902962705538      3.14972056430536     -3.91451976596881
  C           0.19820271408881     -3.63038540895806     -1.67056657540564
  H           2.08777284307497     -2.99791131938116     -0.83212314666211
  H           1.98412651281126     -2.78021984586609     -2.57759556757892
  H          -0.36227696596273     -3.53798055810815     -0.74351860219140
  H           0.50125904153352     -4.66670452359786     -1.79746952370875
  H          -0.46057600474250     -3.35393659468065     -2.48954837695368
  H           4.10009073222920     -1.29690702941938     -3.29576156404953
  H           3.23220320417852     -1.07027466248899     -4.66843239940682
