17
Coordinates from ORCA-job NEB E -42.378492853380
  C           0.89997560038778      0.19478934647932      1.00458037590599
  C          -0.45905365234517     -0.15410084653730      1.01114897187569
  Br          1.29176010845864      1.95475917342096      1.65512667827101
  H           1.63035423946377     -0.52005823787305      1.36477099474169
  C          -0.78487471098505     -1.65181643973631      1.02942923159311
  C           1.25882972790165      0.36105281816570     -0.91245123313589
  C           0.01576911898722      0.46841732637979     -1.55082304224409
  C          -0.92760423907188      1.35486206921527     -1.00448150595721
  O          -1.33672347700792      0.61449579135813      0.49218019236985
  F           1.99952788386955     -0.71608444156600     -1.21935679492387
  H           1.90268848687520      1.23078260944864     -0.80925144397070
  H          -0.34482617975691     -0.42477345182518     -2.04607306901948
  H          -1.91033627436391      1.39195709171000     -1.45244495482722
  H          -0.57664705383762      2.31316967887536     -0.63849162299948
  F          -0.71751733918399     -2.18761338489363     -0.20483377645220
  F           0.07142738206430     -2.34124320292422      1.79436452189729
  F          -2.01274962145567     -1.88859589969748      1.48660647687552
