17
Coordinates from ORCA-job NEB_reactant E -42.417870183550
  C           1.73830281975233     -0.04447112039595     -0.21089808552869
  C           1.68333776401069     -0.86834512280469     -1.25666167527481
  Br          2.45065714300157      1.69929617172117     -0.12789099370129
  H           1.34070816807676     -0.35984300828832      0.73907064330085
  C           1.04540991195805     -2.23962130436559     -1.05789429147169
  C           3.56850798512332      0.95656244703348     -5.31170353322684
  C           2.99218142343023      0.08985053023879     -4.50189073417254
  C           2.70499727477794      0.36637434361660     -3.05829221832200
  O           2.07136087771050     -0.79430125195688     -2.53929809158448
  F           3.80487202345074      0.66115437031557     -6.59500499998498
  H           3.90134920272425      1.95213050886054     -5.05490906323611
  H           2.69588036589959     -0.88433771037943     -4.85946515753522
  H           2.04374121142151      1.23551844769686     -2.95734248463692
  H           3.63563292298530      0.56459460664195     -2.51265230095561
  F          -0.02922915925230     -2.39177414107409     -1.83780641766543
  F           1.89748902410830     -3.22092002054403     -1.36632237812903
  F           0.64380104082121     -2.45676774631597      0.19916178212479
