22
Coordinates from ORCA-job NEB E -46.249098001660
  C           0.58037533919675      0.76060991394454     -0.26525653847311
  C          -0.58128849466327      1.05823093283724      0.47611507502490
  C           0.47256735457687      0.87607465246492     -1.76493625539846
  H           1.51839266092060      1.13967642530053      0.13394743692906
  C          -0.53144018370201      1.64542197276069      1.84211690328558
  C           0.65495256951113     -1.10918660818609      0.06722699962101
  C          -0.57757952470584     -1.57327716440026     -0.39652329676521
  C          -1.76150053620470     -1.04716792733879      0.22698673079965
  O          -1.71978218362604      0.50396434393614      0.12651155729465
  N           1.84385415217325     -1.58726843533212     -0.62570717673879
  H           0.85550012020727     -1.06422821699455      1.13513240706880
  H          -0.62462410176410     -1.97865071864636     -1.39679024876705
  H          -1.81974254387090     -1.21125958890356      1.30414567500538
  H          -2.69576188212641     -1.30722074524666     -0.26056735272453
  H          -0.53360182706048      0.62941676665027     -2.09471058097553
  H           1.18357830332554      0.24438116713141     -2.29013272327114
  H           0.68374779562263      1.90952551072870     -2.03721781765120
  Br          0.75375805014820      3.08908811103124      1.98908653264072
  Br         -2.28845006422263      2.29079009725698      2.34091836253549
  Br         -0.01020739007064      0.25348596999538      3.25555747110531
  O           1.74568080537529     -1.85783768485221     -1.79930570748169
  O           2.85157158095948     -1.66456877413744      0.03340254693617
