22
Coordinates from ORCA-job NEB_reactant E -46.272162991880
  C           1.94409685591512     -0.09094684864256     -0.05497571120222
  C           1.56187494852289     -0.64487844328347      1.09252544686418
  C           1.49522106391357     -0.49831419966409     -1.41866780922722
  H           2.63803847150072      0.73471383419481     -0.02048085401906
  C           1.94783539186206     -0.13971731438948      2.44988203554147
  C           2.71960135100494     -4.63132245431283      0.99359739762300
  C           2.34719040138922     -3.40339572950446      0.65974354833903
  C           0.93451213135222     -2.92763567507034      0.59112791550765
  O           0.70827349237309     -1.70760318965421      1.27549884923760
  N           4.10927810270601     -5.00110436988980      0.99300438737336
  H           2.05742128818591     -5.42948879739785      1.29025438898304
  H           3.11873797105122     -2.68657971174194      0.40003156072981
  H           0.25607386030393     -3.63352972211531      1.07631371451488
  H           0.65361172523345     -2.84020118061295     -0.46786685967685
  H           0.46540340471726     -0.84811219435875     -1.40860867127605
  H           2.13533074902458     -1.28487626346736     -1.82174304519043
  H           1.56313363587618      0.35586506078804     -2.08708412305415
  Br          3.05507202517334      1.43797398533774      2.47537668038437
  Br          0.30517127487807      0.24949334489945      3.44673181194234
  Br          2.89965588067657     -1.57367744239430      3.41551303501377
  O           4.91586950977654     -4.18515002602707      0.60651498202167
  O           4.36989646456310     -6.11771266269325      1.37811131956981
