23
Coordinates from ORCA-job NEB E -32.297581240580
  C          -0.89883158731522     -0.97545480044765      0.02647218924113
  C          -1.98369324204833     -0.21186523812882      0.39760604566654
  C          -0.28799739958030     -1.91249742447540      1.03353512389416
  H          -0.88057717483327     -1.33316972305274     -0.99424041944927
  Cl         -2.92389632884160      0.45157139481095     -0.97169461556805
  C           0.50668824871097      0.63274102439651      0.00495562260274
  C          -0.18299001628038      1.70828197736280      0.53024067870626
  C          -0.83113422081596      1.56777423755851      1.77277330203343
  O          -2.09655793212275      0.41406256161777      1.48532636167632
  C           1.03093180238281      0.69171779615392     -1.40502978984472
  H           1.10289468865837      0.05022958155522      0.69322733715794
  H          -0.58013950312898      2.44333013744909     -0.15898151604819
  H          -1.41448659962777      2.39753431391287      2.14588742931980
  H          -0.31705178193533      1.01214587250739      2.54749160826774
  H          -0.31190980102906     -1.48446823220542      2.03204274254885
  H           0.73449294092591     -2.16935449756050      0.76798355809693
  H          -0.86826246306256     -2.83610707093589      1.04912209782158
  C           1.93092382815320     -0.48418531439517     -1.76403541121276
  H           1.60067521704033      1.61958526832213     -1.51649962560772
  H           0.19257170459552      0.74948646926106     -2.10279872801150
  H           2.79777176832911     -0.51609070627413     -1.10712588415351
  H           2.28370595892008     -0.38838784826482     -2.78818291115870
  H           1.39687189290521     -1.42687977916766     -1.67807519597901
