23
Coordinates from ORCA-job NEB_product E -32.353815490550
  C           2.89666925895222      1.40662838788271     -1.21769722413017
  C           1.79368328002518      1.21322456098223     -2.21225210665283
  C           2.38064322999276      1.00037235537466      0.16650459615654
  H           3.74633874356050      0.77718444694198     -1.48650396625795
  Cl          2.28317805675344      0.20366390391487     -3.59708116801808
  C           3.36443754302900      2.88647516858517     -1.21577166046849
  C           2.28697174613695      3.80499027136288     -0.72036137720004
  C           2.41721748508566      4.59390675987280      0.32949655164484
  O           0.68585307414647      1.62829310176167     -2.17535010546529
  C           3.82781753396046      3.35247536547908     -2.60571113522465
  H           4.21730233211182      2.94281505696921     -0.53005006929383
  H           1.37271719411277      3.80608960472075     -1.29682600007078
  H           1.63052006855688      5.25752565579381      0.64473637611183
  H           3.32007049092434      4.61295434006544      0.91895622269848
  H           1.49434505668594      1.57424734105960      0.42325646390989
  H           3.14760615473199      1.18993275917595      0.91289041000123
  H           2.13053753079393     -0.05784456496331      0.18354905733305
  C           5.05633072103104      2.61055634848101     -3.11943816788028
  H           4.06177112945173      4.41762306796277     -2.53434432096784
  H           3.00793340230771      3.24429585604800     -3.31879501467691
  H           5.85811292553392      2.64357298160957     -2.38456157553341
  H           5.41350284490552      3.07700642275448     -4.03434400088924
  H           4.82804019720976      1.57191080816466     -3.34160178512606
