23
Coordinates from ORCA-job NEB E -44.208789567460
  C          -0.21477478597794      0.49310505758883     -0.89116441323049
  C          -1.61531859469111      0.43104042550645     -0.78865803910646
  I           0.62455201685418     -1.35340140204823     -2.10221375154246
  H           0.13778614983648      1.29156536439596     -1.53472774842478
  C          -2.54610733045737      1.16531298443695     -1.68998145115574
  C           0.48884502270063      0.49156398551832      0.51171154255674
  C          -0.13806010226190     -0.57463658513625      1.30807108665088
  C          -1.46345624858332     -1.10395481551603      0.97083950810696
  O          -2.26029069264246     -0.41086643885223      0.06842298200737
  C           2.03534455651843      0.48979988927050      0.45694183808677
  H           0.20551230686016      1.47517194131459      0.91528963903403
  H           0.47352646574471     -1.23344183123629      1.89852625775004
  H          -2.08752586196846     -1.25660490615759      1.86000082608433
  H          -1.28904771379387     -2.11033550400814      0.54560049390910
  F          -3.08771508766591      0.39640706269446     -2.65866625246470
  F          -3.58507698113268      1.69714700301569     -1.02524605032144
  F          -1.93052378995934      2.17771373719619     -2.32110357163294
  C           2.73556407471899     -0.78688537032833      0.90927030072339
  H           2.39980197963634      1.31205780329858      1.07566708171016
  H           2.33599797912182      0.70984817950557     -0.56833616527558
  H           3.79574775153240     -0.70678316142618      0.68253205754991
  H           2.63680240217159     -0.93226840709084      1.98249157798015
  H           2.34841648343862     -1.66155501194199      0.39473225100476
