23
Coordinates from ORCA-job NEB_product E -44.258715895190
  C           3.01546594292624      1.44303029390157      1.84485892074027
  C           1.56354344295209      1.69406739319628      1.60555629865531
  I           3.29894541640702     -0.11169154178824      0.34032728388600
  H           3.63170723855856      2.27842816646018      1.51149517229653
  C           1.23671931235907      2.55380092922875      0.34840349998983
  C           3.33373944739134      1.03773611107358      3.28544002378591
  C           3.03587397617771     -0.40811198122332      3.56884364945203
  C           1.97530611290974     -0.82683167387678      4.23163405838429
  O           0.65607262032017      1.30180424726264      2.28186982790622
  C           4.77349561762284      1.41257099847024      3.67724183231723
  H           2.65549036504985      1.63993966260061      3.90557598728015
  H           3.76308298442574     -1.11676892159365      3.19773079946715
  H           1.23270384454357     -0.14483066644314      4.61083946116049
  H           1.79922200377194     -1.87382389294055      4.40843610102549
  F           0.43260696033115      1.91471633927006     -0.49982454338841
  F           0.61381061225342      3.67561689505485      0.73301579564633
  F           2.32144938543951      2.93805178553896     -0.33987630289170
  C           5.86657104364130      0.79908714609444      2.80953437099876
  H           4.92027430456151      1.09746347404910      4.71258635746096
  H           4.86825529987833      2.50159639098575      3.65029892551397
  H           5.81765060090840      1.16109891525269      1.78535308363940
  H           6.84005122349169      1.07156812740134      3.21034715976293
  H           5.80306224407884     -0.28531819797538      2.79541223691086
