24
Coordinates from ORCA-job NEB E -52.887220956940
  C           0.52270605198911      1.03780576986309     -0.29436615931461
  C          -0.62834417520375      0.84227616926869      0.49107448590012
  C           0.45576208275181      1.80979616389647     -1.57036129098767
  H           1.39490176665779      1.32139154714077      0.28831933576558
  O          -0.42264102985387      0.93718905010887      1.81652029101946
  C           0.82719868573474     -0.93930770253060     -0.86263616333814
  C          -0.25971572228885     -1.65759237885968     -0.39165055178811
  C          -1.55301961151102     -1.16964460801422     -0.71922389817266
  O          -1.70331321965840      0.29271490661196      0.06363705863090
  C           2.18016300306907     -1.28867978584893     -0.29736692135064
  H           0.85629251933842     -0.65224021640466     -1.90437635993039
  H          -0.14676422073259     -2.17149617871189      0.55531457117950
  H          -2.40275706044279     -1.69704737376602     -0.30308703892665
  H          -1.70815554590683     -0.85985375407232     -1.74593949738618
  Cl         -0.92778957541716      1.43450564975920     -2.60140650533753
  Cl          0.31989947017579      3.56521284417095     -1.14355981526331
  Cl          1.93735902478436      1.63976153878387     -2.54472183527986
  C          -1.45108883655905      0.46978202035513      2.67365758620525
  H          -1.10459697643693      0.67132837665383      3.68394265621443
  H          -1.61428198916750     -0.60135854741587      2.53952211515316
  H          -2.38528925656243      1.00105323984653      2.47854365473750
  F           3.12893620662893     -0.38244252342519     -0.62194049354931
  F           2.15120237477350     -1.32891118626684      1.05854631826800
  H           2.53333603383763     -2.27424302114315     -0.64844154244883
