24
Coordinates from ORCA-job NEB_reactant E -52.920490654340
  C           2.56254996051006     -0.40569670179031     -0.06603410834394
  C           1.99648469058066     -1.32041930788955      0.74568680476695
  C           2.35883849056580     -0.20157406016365     -1.50584467433986
  H           3.23121629750580      0.29174024397089      0.41206615046263
  O           2.27534026853796     -1.20053822828349      2.05771272368873
  C           3.89333781488252     -4.14266047924591     -0.17964783939273
  C           2.61617627825107     -4.18086626877528      0.16207836361473
  C           1.56935984565475     -3.32515115788450     -0.48472887201295
  O           1.13360183387399     -2.30522553535376      0.42263785878605
  C           4.95618466955725     -4.95446957443157      0.49719712460783
  H           4.25279882410626     -3.53552989488389     -0.99742070880745
  H           2.28440310356477     -4.80361670256230      0.98220422710670
  H           0.66487851210410     -3.90267554942030     -0.68668975150382
  H           1.94754749055417     -2.89475627827470     -1.41316111858756
  Cl          0.71798598690528     -0.60370294040024     -2.05825489157705
  Cl          2.66893400415292      1.50074458551035     -1.92136103998702
  Cl          3.52585333055225     -1.17982005956016     -2.50450065352295
  C           1.67223517406406     -2.11346087706832      2.96146554292128
  H           1.94536733490172     -1.75586938025083      3.95156930023567
  H           2.05865908102385     -3.12491846108004      2.81556795148006
  H           0.58658758546600     -2.11833501422529      2.85112864479127
  F           4.47083588480773     -5.65961356473941      1.54736152910434
  F           5.48667310458758     -5.86578118993170     -0.35902723683188
  H           5.78875043328945     -4.33260360326603      0.86879467334100
