22
Coordinates from ORCA-job NEB E -37.893962411960
  C           0.85859030457503      0.93100649885162     -0.06612497272738
  C          -0.15918600036241      0.59722847188545      0.82376074810650
  C           0.52774921109518      1.86312762506788     -1.19856637973199
  H           1.85642740459471      1.03976383771980      0.33928117249269
  O           0.23555444339101      0.17731984291179      2.05571185737229
  C           0.85632270381562     -0.93959919862698     -0.95413827721290
  C          -0.45189757533559     -1.02278563734812     -1.41695046795822
  C          -1.48860766304529     -1.04475669934867     -0.44660639618424
  O          -1.36165282533457      0.38536014076024      0.40926061359834
  C           1.93805651665291     -0.90685988527679     -1.87271601826771
  H           1.11795751689839     -1.44578199872585     -0.02833619912570
  H          -0.67311480045122     -0.68635526546730     -2.41889266872549
  H          -1.37495994403626     -1.75088282188942      0.37064183072264
  H          -2.50670057736007     -0.98246119388077     -0.80837916913613
  F           1.49224155659977      1.84695262490899     -2.16799371687104
  H           0.48334114473329      2.89681381282491     -0.82974687268137
  H          -0.42414795449837      1.60419750942865     -1.67279462356641
  C          -0.75519819746526     -0.31358195812977      2.94356047029169
  H          -0.55031648754459      0.11484755058833      3.92403487571306
  H          -0.68957497450834     -1.40293374306915      3.00424673984251
  H          -1.75301908897024     -0.02353496309803      2.60970176043320
  N           2.82213528655630     -0.93708455008679     -2.59895430638431
