22
Coordinates from ORCA-job NEB_reactant E -37.919089279350
  C           1.66021112714891      0.12484902945951     -0.05072007083520
  C           1.50476282413414     -1.07710661755719      0.51376956178539
  C           0.90377212414410      0.57877104170350     -1.25144180135459
  H           2.38872420658722      0.79179414251080      0.37650175977229
  O           2.21766419888717     -1.38230311707970      1.62519132650249
  C           2.31262288578101     -4.80578666047384     -1.28251353224288
  C           2.22132297980916     -3.50810330077794     -0.99722792000473
  C           0.96163073392135     -2.71284057213601     -1.12449238697494
  O           0.62319453629575     -2.02807208854044      0.08200047144129
  C           3.51921865160476     -5.52246894034259     -1.15900081181976
  H           1.46112261887522     -5.37841980471731     -1.62765641020620
  H           3.09069743431164     -2.95881830701626     -0.65643744169459
  H           0.10130701387030     -3.35498944877584     -1.32689079329479
  H           1.08385754290560     -2.00105166899639     -1.95074882354566
  F           1.57168488885202      0.26042638378172     -2.43042983441909
  H           0.79194196368414      1.66586611260594     -1.25892359649210
  H          -0.07640005542569      0.09564554963467     -1.32135437021002
  C           1.87631391397795     -2.56528063946624      2.32382552748248
  H           2.50191741544579     -2.56479756328676      3.21357369578594
  H           2.08529229106753     -3.45948368515256      1.72916598818008
  H           0.82167902936617     -2.56283379139705      2.60861443772516
  N           4.49236167475573     -6.11799605398006     -1.04670497558057
