22
Coordinates from ORCA-job NEB E -52.436800752900
  C          -0.12620210207038      1.06022154317897     -0.04886499413183
  C          -1.38893075524050      0.66609280668903      0.41674679984260
  C           0.03639103788766      1.29685509329730     -1.53689068221052
  H           0.34841614954967      1.85788561870650      0.52153625223711
  N          -1.68449855149820      0.96432889639457      1.80849723189468
  C           0.89462274826545     -0.54877145793166      0.35886595604970
  C           0.10232182968471     -1.52115428350331     -0.24993269917816
  C          -1.27409139965516     -1.69234795423523      0.16374338961020
  O          -2.00368662254882     -0.36755140682209     -0.08797513575645
  C           2.32854469241468     -0.38297076512025     -0.09028349522492
  H           0.81105315895447     -0.41026310825772      1.43335945262257
  H           0.39749839858204     -1.89285058959816     -1.22044710283895
  H          -1.42262756097093     -1.85999557429099      1.23321850055808
  H          -1.83627039952776     -2.40638211679233     -0.42995904607862
  F           1.27597393403752      1.69529514404996     -1.84154371401219
  F          -0.24966819861036      0.25293876845384     -2.31004296494924
  F          -0.77784881795990      2.29420796127104     -1.91930291437203
  O          -2.49616290654224      0.25314648995248      2.35823470618843
  O          -1.07812181768639      1.88453082997718      2.32342581905182
  F           2.49158771449801     -0.74334535210392     -1.39690598197672
  H           2.96950421112265     -1.04759101033945      0.50298729890702
  H           2.68219525731377      0.64772046702425      0.01153332376740
