22
Coordinates from ORCA-job NEB_product E -52.461343594480
  C           2.89468180722104     -0.95983655067824      0.58777672613613
  C           1.41362721624704     -1.02666359714870      0.83626558374590
  C           3.14079786312601     -0.39680951275290     -0.81974753595270
  H           3.35205398097524     -0.25271947393060      1.29052913576894
  N           1.08473205571605     -1.12154428193156      2.35487274784074
  C           3.47016643592799     -2.38400433859715      0.86966776291659
  C           2.58427946985522     -3.44777598816306      0.27118287857666
  C           1.88901332892639     -4.29956228739540      1.00021296321917
  O           0.50572177548075     -1.04933341807005      0.08527836313789
  C           4.91858943950269     -2.55518659654505      0.39795916327221
  H           3.48665042468203     -2.49505048804482      1.95938011704675
  H           2.55726659930608     -3.48067818686332     -0.80801057691326
  H           1.91146445204127     -4.28513177737172      2.07875311095207
  H           1.26847020137171     -5.05160264973947      0.54688549532357
  F           4.42470399754988     -0.07329134275676     -0.99855160318396
  F           2.77737794723485     -1.20550949668587     -1.80553816800771
  F           2.45149952368608      0.74763395765855     -0.97280739307490
  O          -0.06525272898324     -1.31908017152409      2.61706248162597
  O           2.00806249161975     -0.99546589428206      3.12253158590633
  F           4.99721512513611     -2.66481995041316     -0.96120456943543
  H           5.32111623814803     -3.48676375746460      0.80927305047503
  H           5.54786235522903     -1.70890419729998      0.69192868062400
