17
Coordinates from ORCA-job NEB E -39.498235263170
  C           0.99742210123557      0.19685042344072      0.44208109238606
  C           0.15703548372478     -0.52919586539762      1.30819538545293
  C           0.88417059947995      1.69634590197038      0.51658556532386
  H           2.04526425490439     -0.10233189735266      0.44259909955823
  Br          0.84999631095643     -2.27023191262316      1.87119297540648
  C           0.30618237525028     -0.59325484727898     -1.21060273886880
  C          -1.07769254050977     -0.41239016481486     -1.14177980060414
  C          -1.78270679602740     -1.01829559407005     -0.06828057005598
  O          -1.09939662252465     -0.39446383946356      1.30271406753011
  I           1.29734739701084      0.13720417585801     -2.94450806017602
  H           0.70580407339259     -1.57401412852399     -0.97663901579324
  H          -1.54017605968413      0.40493618247126     -1.67248924609268
  H          -1.58779736541143     -2.07124526339450      0.12394551314944
  H          -2.82639405258486     -0.75068895943719      0.03775327046414
  Br          1.32349235946412      2.21325137257064      2.39937060157543
  Br          2.20391055926468      2.61501374676114     -0.57653090948258
  Br         -0.85646207794137      2.45251066928441      0.14639277022675
