17
Coordinates from ORCA-job NEB_product E -39.543694552120
  C           1.62237850308669     -0.62190271136095     -1.45561070853846
  C           0.97960194980139     -1.18005030650953     -0.20163658464595
  C           1.32751125946728      0.86955988415457     -1.55532845075085
  H           2.70916274539036     -0.72704640907563     -1.34455572768219
  Br          1.93396840735673     -2.76068780402954      0.45122321214471
  C           1.16429099409153     -1.53034280855911     -2.62515349810165
  C          -0.07107853970780     -1.11143161295658     -3.34057118292900
  C          -1.19231212500514     -1.80933264939434     -3.29040616058768
  O           0.01175455751261     -0.81030439887506      0.35998808084016
  I           2.77857370773571     -1.80559455392655     -4.08142655261004
  H           1.02712035057324     -2.53698101861692     -2.22269084449475
  H          -0.00097849949240     -0.22677479296901     -3.95820993005038
  H          -1.28200813405509     -2.70851039946764     -2.70259077403000
  H          -2.06934416682265     -1.49594228892874     -3.82747617023084
  Br          2.17389103092790      1.73933009229645      0.00445809918758
  Br          2.12487426785232      1.65188744004558     -3.14831456534176
  Br         -0.55690630871267      1.35192433817300     -1.52889824217891
