22
Coordinates from ORCA-job NEB E -33.673459434500
  C           0.41289165621048     -0.34010096867490      0.87662468862501
  C          -0.64815504198775     -0.31201467842965     -0.05725436511007
  C           0.27831841622711      0.30365623912458      2.12874621253595
  H           1.01701623972386     -1.24127564207991      0.92486921232297
  C          -0.74712897399912     -1.43625150063743     -1.06220722074274
  C           1.64167370021209      1.00949580942642      0.04267072810781
  C           0.78091918033756      2.11785864915976     -0.00149291458637
  C          -0.33816442359414      2.08552483295798     -0.82756048414050
  O          -1.34970579299824      0.73831226553862     -0.19927577767283
  O           2.74641023176792      0.98505088100975      0.82167555026453
  H           1.82554925576625      0.45339457925238     -0.87180238142686
  H           0.76837598919295      2.76864916444213      0.86340321112591
  H          -0.24116942181120      1.66117917080851     -1.81791847561587
  H          -1.05061172320386      2.89237791352604     -0.75644860934796
  N           0.19951749975843      0.80719230941338      3.15568658930999
  C          -1.58062372786809     -2.58487036884589     -0.48971938190404
  H           0.25086890529860     -1.80292854082775     -1.31466894880538
  H          -1.22822175040131     -1.05629183364088     -1.96533368561582
  H          -1.11936607601878     -2.97984331716118      0.41303185419045
  H          -1.66433254014325     -3.38853075403039     -1.21723982428547
  H          -2.57949922328483     -2.23534422827929     -0.24061143220751
  H           2.62543762081534      1.55476001794770      1.59482545497879
