22
Coordinates from ORCA-job NEB_product E -33.705428602210
  C           3.07223599280753      0.77561358396871     -1.73244633952157
  C           1.83362169281212      0.34354981310417     -2.53331719117520
  C           2.97289277327435      0.39483028160739     -0.34709311143383
  H           3.93900255772331      0.25359654246743     -2.16071597507401
  C           1.29335772382608     -1.01039573299851     -2.15369290465317
  C           3.34486612951899      2.29378404738591     -1.87259036001826
  C           2.40215854660468      3.08426524853326     -1.00784334572854
  C           1.35166238384049      3.73052402026552     -1.47537331352603
  O           1.36776193412925      1.03970057954252     -3.39318068945752
  O           4.69887251191169      2.49305554239032     -1.51861608841964
  H           3.18438909090737      2.55449241947255     -2.93113141634381
  H           2.64418847975897      3.07834271265445      0.04697547360409
  H           1.10748504410138      3.72340634754200     -2.52479216591068
  H           0.68691840589114      4.27480680614023     -0.82704379594818
  N           2.88663503346842      0.09912654352335      0.75384873164494
  C           0.22642405491175     -1.49793052570556     -3.12521657142199
  H           0.87560781299110     -0.91834062011776     -1.14624666207521
  H           2.12015852308586     -1.72192460952741     -2.08979474617516
  H          -0.58396951878344     -0.77622825873201     -3.18323874629875
  H          -0.17454482010416     -2.45332915621925     -2.79851599085577
  H           0.64657746605450     -1.61511926773557     -4.12099270394288
  H           4.86539818126863      3.43777368243826     -1.43978208726882
