19
Coordinates from ORCA-job NEB E -37.102031132940
  C           0.44545200182881     -1.10940959959577      0.14084892838708
  C          -0.87590416865039     -0.67852999204158     -0.18511950267940
  N           0.69856841731573     -1.51172433091463      1.42999137042161
  H           0.96642644366663     -1.70234484661173     -0.60608875463412
  C          -1.33684159633001     -0.80947679395985     -1.63070931146112
  C           1.25569067467906      0.67950869104197     -0.12801935152498
  C           0.55621209045653      1.49046224672380      0.77297325895597
  C          -0.77175626305650      1.79599237543231      0.51055290276881
  O          -1.50429089160534      0.10110472115781      0.58986861446347
  I           3.32856004522603      0.35461432744931      0.24565968622057
  H           1.09332566624262      0.80928889147846     -1.18742779315433
  H           0.91207971914562      1.56024479162323      1.79231201237902
  H          -1.08145865413346      1.98058339342045     -0.50758225748877
  H          -1.34927207027705      2.30858286777318      1.26291049086751
  H           0.16108267716889     -1.02102719910279      2.13144844152753
  H           1.66810640581171     -1.64651000113611      1.67739545807316
  F          -0.68116998011603      0.05558586890556     -2.46400125237587
  F          -1.07128495246098     -2.04457427302243     -2.11446088030104
  H          -2.41352556491186     -0.61237113862120     -1.73055206044511
