19
Coordinates from ORCA-job NEB_product E -37.129675489480
  C           2.98796063141794      0.77095746241659     -0.44939217415933
  C           1.54562967577194      0.42535080512628     -0.79642657495470
  N           3.36017047621016      0.36841103624385      0.88119442355023
  H           3.65025022473170      0.27341763556271     -1.16835211862900
  C           1.14286342016917      0.57260711844575     -2.28292866808582
  C           3.14891821349519      2.29462457883403     -0.62455233502051
  C           2.22432789264612      3.08630375507163      0.22698189481610
  C           1.41060622015430      4.01063298278295     -0.25086612135560
  O           0.73369161005489      0.07147131476471      0.01312514587419
  I           5.20046670136196      2.78946590471904     -0.08821428351251
  H           3.05190198244732      2.57239106274690     -1.67374346771284
  H           2.26805246977245      2.87753278214579      1.28683348438725
  H           1.36257125356225      4.24007732775770     -1.30259510774931
  H           0.75203670335655      4.56725959081542      0.39244709468975
  H           2.64506468397195      0.62963093996536      1.55188787254472
  H           3.49493497472763     -0.63295946405642      0.94425837931299
  F           0.71429506671538      1.83546324899889     -2.51512765178133
  F           2.19763834675479      0.36917779065846     -3.10392160315571
  H           0.33641945267830     -0.12281587299965     -2.55920818905856
