23
Coordinates from ORCA-job NEB E -53.039363433520
  C           0.53625243051530      0.80111868394451      0.24310692522705
  C          -0.61220068305101      0.78206319897053      1.04650280873736
  C           0.52900955040441      1.71536857222431     -0.96824513634361
  H           1.49525538772930      0.83177693990192      0.75235593328061
  C          -0.52758633070108      0.47766661171761      2.52087167418001
  C           0.43292621271553     -0.99437722720782     -0.46641791934202
  C          -0.83690401125020     -1.01921673424246     -1.03883129010028
  C          -1.97004331559633     -0.78643296678671     -0.18480541918826
  O          -1.77945114237868      0.62467203845909      0.46920925412824
  C           1.62857194144378     -1.22757888834585     -1.36570232369201
  H           0.57726865005398     -1.48679559923157      0.48959525530831
  H          -0.93805627756152     -0.82183247205567     -2.09618176025416
  H          -2.03668892957500     -1.44143090686595      0.68245587707994
  H          -2.92309317746211     -0.69405134384602     -0.69480429935520
  F           1.79721185054284      1.88797774393254     -1.43913071426665
  H           0.17526504903649      2.70692334979842     -0.66105409066243
  H          -0.08459157376140      1.34964592428609     -1.79534531524559
  Cl         -0.28257306920976     -1.29164945968698      2.84213591839169
  Cl          0.82277450679296      1.33709963945803      3.27720780107358
  Cl         -2.03964825298704      0.94854581206304      3.31421746553529
  F           1.49977877325733     -0.62014891283104     -2.56492463277489
  F           2.76887707995213     -0.77267945381123     -0.80353929645524
  H           1.76764533109010     -2.30666454984479     -1.55867671526176
