23
Coordinates from ORCA-job NEB_product E -53.080537594890
  C           2.55885182042731     -1.61182266079750     -0.52741101158443
  C           1.53726133956903     -1.29950072054058      0.54854342003826
  C           2.57509279434025     -0.44669782901214     -1.52409400066517
  H           3.55490155364419     -1.71684235771824     -0.08903290515843
  C           2.03364728523600     -1.48025457077925      1.99520518633963
  C           2.14535232075530     -2.96655447446802     -1.16799683199587
  C           0.86919756264086     -2.86145517268516     -1.95393278042596
  C          -0.29069220815575     -3.31321309970412     -1.51711242369586
  O           0.42112938826806     -0.93806119565272      0.32504156274342
  C           3.26254754946590     -3.53767155020428     -2.04804355076167
  H           2.01438489002628     -3.68343884900963     -0.35025843093521
  H           0.95242432057856     -2.37810151747643     -2.91662055247291
  H          -0.39112619830126     -3.79525237010490     -0.55884166785039
  H          -1.19024902937768     -3.20948300412055     -2.09717174135863
  F           3.08784736817374      0.66065818328196     -0.90009391882515
  H           1.56101557095668     -0.19180077956792     -1.84619162027788
  H           3.22131163199506     -0.64884787513966     -2.38088145414355
  Cl          2.72402442715664     -3.10425674053056      2.20582896419088
  Cl          3.29639502620325     -0.25771048745796      2.28032910758476
  Cl          0.71039732295814     -1.25643676420978      3.14147372250601
  F           3.48396602751069     -2.79103212619519     -3.15589711667705
  F           4.43775236248281     -3.57521730275921     -1.38000780929075
  H           3.03056687344593     -4.56050673514819     -2.38373414728407
