19
Coordinates from ORCA-job NEB_reactant E -34.299644383010
  C           1.76999175664973     -0.13039103458963     -0.00917546204978
  C           1.86069452328705      0.28707174324964      1.25608639905696
  O           1.59602169476139     -1.45200658368402     -0.40008373387172
  H           1.82328531592397      0.61726719218566     -0.78343368453191
  O           1.99541544899093      1.63564461193882      1.44392936594900
  C           4.42840406390349     -2.58863951386006      3.00359591051974
  C           3.62415606901762     -1.99601916483119      2.14398843730305
  C           2.16029499467128     -1.79890507670887      2.38868389206729
  O           1.80834092255694     -0.42536616733467      2.41680692528851
  F           5.73680624866783     -2.75582968348488      2.75294684594810
  H           4.14385611903795     -3.00930002631005      3.95752308551456
  H           4.01398594684832     -1.60465189226750      1.21601344144987
  H           1.87786557185574     -2.17414897195567      3.37498738852563
  H           1.58550621037531     -2.31971965828243      1.61598670820021
  H           1.77564064969725     -1.51428347319581     -1.34227834228366
  C           2.01565888576279      2.09409529685412      2.78065783056076
  H           2.11257585780204      3.17557725424216      2.71015382651601
  H           2.86443604306031      1.67996919880418      3.33137962830792
  H           1.09156367713007      1.83533594923019      3.30323153752946
