19
Coordinates from ORCA-job NEB_product E -34.330178068870
  C           3.11900858754363     -0.31752970241434      0.46176205269491
  C           2.07325917790932      0.34668232020798      1.35363059465063
  O           2.50456751990129     -0.78549013623361     -0.69923560618018
  H           3.90191019312452      0.42351346142901      0.22866946071529
  O           2.68595993927185      1.06715748115517      2.30178352275469
  C           3.76622821538088     -1.46263597253573      1.27811926684807
  C           2.73814015061557     -2.44644016244275      1.73871716580751
  C           2.41068222892040     -2.60945220470743      3.00575375830600
  O           0.88819360181256      0.22898208673254      1.25826074964106
  F           4.67825985751730     -2.08581270340275      0.43580547472080
  H           4.34355072743935     -1.04922354053378      2.11206684201463
  H           2.25004146698652     -2.99934556580654      0.94963791233315
  H           2.89421968531296     -2.05522929593726      3.79417345797690
  H           1.64282565822759     -3.30063972767491      3.30501257808499
  H           3.11968263497987     -1.37931830550423     -1.15013457021075
  C           1.82741484187819      1.71223268595643      3.23806481904610
  H           2.47808845074795      2.22309694572297      3.94252774631569
  H           1.20568506697655      0.97448881895032      3.74839880153278
  H           1.17918199545368      2.42496351703891      2.72578597294772
