23
Coordinates from ORCA-job NEB_product E -43.724669358880
  C           2.25932745572372      1.19887795543369     -1.45100445623682
  C           1.18292311927948      0.80002783665462     -2.49542855614254
  C           1.56923229003225      1.37283765460820     -0.09803170019452
  H           2.99789277204511      0.39922966716261     -1.34186996206653
  C           1.31275466074261     -0.59811451287773     -3.02837690013394
  C           2.92739800077506      2.49324730932139     -1.91758306471032
  C           3.96193362546327      3.03264397351462     -1.00199737333210
  C           3.96108710119458      4.28177595638130     -0.57128360409763
  O           0.34546070145821      1.58861795868796     -2.83218371954020
  I           3.88204271933332      2.07943706066378     -3.84393190990950
  H           2.16460403757072      3.23740507753603     -2.14676455299586
  H           4.75069843650261      2.34658713203058     -0.72432310374969
  H           3.18719820939730      4.97820384120631     -0.84957388297984
  H           4.72827557813180      4.65176325233683      0.08555102324963
  Cl          0.55951820174405      2.82463294076866     -0.03496874658265
  Cl          0.52458539249361     -0.04274869523356      0.21999959277218
  Cl          2.75662126081346      1.45173881597853      1.23108183559409
  C           0.20744120004454     -0.93340773517737     -4.02002164277741
  H           1.30119367484696     -1.29050925349234     -2.18315483709059
  H           2.29219272437950     -0.68714330646373     -3.50693348154471
  H          -0.76476692376605     -0.84981998989924     -3.54149063960177
  H           0.33060940113580     -1.94565223676138     -4.39431814449965
  H           0.23407636065808     -0.24193070237977     -4.85789217342961
