20
Coordinates from ORCA-job NEB_reactant E -36.865041022720
  C           0.55457426079623      0.98403582577409     -0.41862414608699
  C           1.81525301813211      1.41555587085988     -0.43026194609368
  I          -0.73093973277561      1.55875478174394      1.12211885246477
  H           0.13856595037116      0.31810530242764     -1.14885080114123
  C           2.71905473479849      0.98343517426534     -1.56678568118197
  C           1.84274197455537      4.65747737514372     -0.69420110873429
  C           3.06408934762818      4.24262008171725     -0.40548983823966
  C           3.39008621637959      3.02017679459014      0.40508192649931
  O           2.28149280682843      2.15227660184591      0.59362948037903
  C           1.53272515428257      5.86968469202165     -1.50233677285116
  H           0.98144979386471      4.10995467202448     -0.33366719336263
  H           3.93254910183691      4.78554989136630     -0.75064359063947
  H           3.67265402588570      3.31018186940977      1.42344572946697
  H           4.24048062516390      2.49062902764893     -0.03911040684063
  F           3.11685722275465      2.02450104649418     -2.33945073801187
  F           3.85395287760845      0.40379374618446     -1.10131300805857
  H           2.21740563709846      0.25715250332263     -2.22263001454063
  H           0.95991026980393      5.59306362917066     -2.38696561547339
  H           2.44255828134005      6.37480848570681     -1.81580848935291
  H           0.92483843364669      6.56034262828218     -0.91893663820099
