20
Coordinates from ORCA-job NEB_product E -49.744355495260
  C           1.46525639411460     -1.68297950549986     -1.48162392205508
  C           1.17270309660156     -1.47325053518791     -0.00633120930596
  C           1.30699373083045     -0.34993679837693     -2.21976068447073
  H           2.51191108903541     -1.98469980384313     -1.60183709318961
  Cl          2.15576376017191     -2.54409786451800      0.99217284343300
  C           0.58893745451801     -2.90642834826624     -1.89866258499020
  C          -0.89465621145259     -2.65121580012809     -1.87202060817735
  C          -1.64717834665262     -2.87818165818317     -0.81215309060438
  O           0.37495561594737     -0.75908125662837      0.48926179652670
  C           0.98338327733200     -3.52026927287340     -3.24995297066468
  H           0.83054540694189     -3.67267396801027     -1.15118679127950
  H          -1.32524633402771     -2.27760519956324     -2.78866840873294
  H          -1.24150868178143     -3.25391317452340      0.11273098174389
  H          -2.70450372698906     -2.68329823030477     -0.82540305559710
  Cl          1.95567888061788     -0.42349914300633     -3.86756088875220
  Cl         -0.35008411053280      0.25167913405140     -2.26263202945824
  Cl          2.30467187101528      0.85054406710315     -1.32272428814570
  F           0.51027152036527     -2.82575774977825     -4.30401196969671
  F           2.32774106460698     -3.58167821835734     -3.38915985817133
  H           0.59016424933760     -4.54645667410583     -3.33847616841188
