21
Coordinates from ORCA-job NEB E -33.369624918460
  C           0.24950937892582     -1.11651890135025      0.18538074828751
  C           0.14801835932951     -1.44072862926816     -1.16044794217351
  O           1.48196729677428     -0.89384288351260      0.72173300532966
  H          -0.49272549843901     -1.54873858960892      0.85189956071139
  F          -1.12361651181470     -1.93628182915401     -1.46073289500132
  C          -0.46379912345623      0.89828241738734     -0.07263367940887
  C          -0.55611609528414      1.08755890594539     -1.43926929620135
  C           0.56116639178997      0.84323660450888     -2.24498724279337
  O           0.76626566014784     -0.93935008339969     -2.11522526662705
  C          -1.69059909131209      0.98277286310885      0.78672623521784
  H           0.46339703453819      1.20400271813670      0.39691777107093
  H          -1.53497409274199      1.01675548027674     -1.89700786839542
  H           1.53998511946050      1.08179689177591     -1.85240609625631
  H           0.46898865603024      0.93032387175792     -3.31645639123270
  C           1.52743352458153     -0.82058634913191      2.12795670580864
  H           2.58095882702874     -0.76476165605529      2.39491872762290
  H           1.08131179737817     -1.70834112654081      2.58779249852307
  H           1.01310452050456      0.07175406987828      2.50116701453671
  H          -1.50225882588495      0.62684114315374      1.79672991358774
  H          -2.50271156097445      0.40381069873347      0.35326333245193
  H          -2.01530576658178      2.02201438335842      0.85468116494157
