21
Coordinates from ORCA-job NEB_product E -33.422646351990
  C           0.23235527514318      1.55735010156149      0.31959241406604
  C           0.97145244115963      0.74659916564794     -0.71616955535318
  O           1.06325144035199      1.89814056313074      1.39816502281738
  H          -0.64169853295034      0.97511796493116      0.65943521758713
  F           0.10240131909450     -0.05330949768192     -1.41183431384340
  C          -0.24165125558290      2.87636499553449     -0.34589093739186
  C          -0.99716546808282      2.59511302238964     -1.61073574572460
  C          -0.61167598679735      2.99205879598099     -2.80811175926671
  O           2.11659499333321      0.72157179676798     -0.98818143177657
  C          -1.11110783446197      3.65586929906993      0.64024681530674
  H           0.65992268445691      3.45475974861115     -0.56720933330631
  H          -1.91686032788876      2.03869517030335     -1.48566331182197
  H           0.30168120633126      3.54488918410867     -2.95546400199188
  H          -1.18943163956374      2.77966980441838     -3.69080249227708
  C           1.43428629627545      0.80905468217553      2.21200691124804
  H           2.00957214045258      1.23169038227023      3.03263067078317
  H           2.05381379873114      0.08798879635235      1.66964173613634
  H           0.55065863176654      0.29532782710789      2.61038423685869
  H          -0.56406386581414      3.81970229771691      1.56410276655101
  H          -2.02465822594219      3.10776690069444      0.86123247496561
  H          -1.37857709001216      4.61777899890866      0.21072461643340
