17
Coordinates from ORCA-job NEB_product E -36.635945116110
  C           2.04119827399794     -1.69273427208634     -0.74142190961787
  C           0.78395466245546     -2.20162522788674     -0.01537124829648
  I           1.67644598782581      0.34502583498721     -1.33615175228269
  H           2.90319382428275     -1.67817126919868     -0.06958776415748
  O           0.98879041120455     -3.19659012071019      0.83857662162293
  C           2.35546789880465     -2.51938216500942     -1.98618962511239
  C           3.52903257576452     -1.96751851686359     -2.75611059129039
  C           3.55016681421834     -1.87425183814684     -4.07179338651726
  O          -0.29800927947165     -1.74065865459009     -0.21624362358705
  N           2.76389742537807     -3.90932797533045     -1.61500351877048
  H           1.48295395550548     -2.60893317883654     -2.64163394701798
  H           4.37530311798229     -1.67040685301732     -2.15195968947566
  H           2.71500115166362     -2.17642810965132     -4.68097443814592
  H           4.40667155821196     -1.48015062614601     -4.58915449010231
  H           1.89751267306774     -3.55456742259181      0.83728957672991
  O           3.16700406832894     -4.08432753510920     -0.48243433295480
  O           2.70031488077954     -4.74455206981267     -2.47103588102408
