17
Coordinates from ORCA-job NEB_reactant E -36.619019619180
  C           0.98931171791165     -0.65984162765239     -0.09694642933908
  C           2.05808304086333     -1.08860479740842     -0.76421894416410
  I          -0.63436690421744      0.15511824310984     -1.13724316506432
  H           0.90151489156660     -0.69209022438481      0.97130445098894
  O           3.15260496887782     -1.63654406433473     -0.17417926009602
  C           2.23294472939862     -3.82672381249477     -2.36147915178969
  C           3.21939706881855     -3.05129014648336     -2.79444877779675
  C           3.22268561674095     -1.56152797141326     -2.76515236300281
  O           2.11364968556491     -0.99109649570042     -2.10728023175609
  N           2.33886960446757     -5.25508230880205     -2.41644223636213
  H           1.29956436589122     -3.47968912786866     -1.94519537329228
  H           4.10894596897411     -3.51478283766708     -3.20259214711687
  H           3.16993898760076     -1.17890584691470     -3.79044401767803
  H           4.16226941549764     -1.21474614909203     -2.31518953013761
  H           3.04641935458279     -1.65588683724450      0.78292727312249
  O           3.33917479369691     -5.74050907614059     -2.89852453847905
  O           1.40709269376401     -5.88339691950807     -1.96359555803659
