27
Coordinates from ORCA-job NEB E -48.160573498010
  C          -0.17284180164745      0.85531292281047      0.45513933856294
  C          -1.54090811174138      0.55507710911415      0.54912034771393
  C           0.21858738810047      2.17849084789569     -0.12110823331571
  H           0.46851279809789      0.61392596958541      1.29164907140762
  O          -2.02750863097725     -0.26789441209407      1.51048813602836
  C           0.37535556733353     -0.43818404514512     -1.11441344852550
  C          -0.84066802001603     -0.95944395737338     -1.53503884752696
  C          -1.86542274919670     -0.08020253777663     -1.91440622982629
  O          -2.32913129972830      0.74036494879857     -0.42389058653009
  C           1.42184486338468     -1.36580956708430     -0.55388552917303
  H           0.77392553059801      0.39161637378605     -1.68398451712836
  H          -1.13090107014012     -1.93015738080358     -1.15056707896601
  H          -2.82975821298829     -0.49137313097354     -2.17497669137769
  H          -1.59740074150746      0.80814545305905     -2.46992683137029
  F           1.54756855477539      2.26933511309625     -0.32053419324002
  F          -0.35319507599116      2.50781258897477     -1.28150662964648
  F          -0.07583605563361      3.18565946175539      0.73517188948657
  C          -1.27996514267834     -0.52822545832870      2.67708575520271
  H          -0.91769914055878      0.39633314463667      3.13494612531802
  H          -0.43580880187543     -1.19218127476709      2.46963562816578
  H          -1.96691191922056     -1.02482335110439      3.36024895769417
  C           2.72720614253893     -0.67915073190200     -0.17194575328138
  H           1.63635417882616     -2.10668747913885     -1.33076980297767
  H           1.01569450909035     -1.91236888446981      0.30053412899556
  H           3.11554552889568     -0.10848415834178     -1.01156088611664
  H           3.47011173008034     -1.42060650399201      0.11217294672068
  H           2.59324998217941      0.00351893978280      0.66232293370578
