27
Coordinates from ORCA-job NEB_reactant E -48.200265148820
  C           1.35124785805388      0.14603319946660     -0.13742144182579
  C           1.58748340581138     -1.13022183183878      0.23182829867885
  C           1.66888902749390      0.87166460305275     -1.38000895000487
  H           0.83741178913746      0.74941674044964      0.59148163131384
  O           1.14191095778976     -1.46413388596638      1.45684001494206
  C           4.63948020790807     -3.51368039474155     -2.40427609424578
  C           3.38917189486252     -3.35820126181095     -2.00379288186394
  C           2.77010461421866     -2.03312804650238     -1.68323045732116
  O           2.18583266884817     -2.14629867093635     -0.38495638653096
  C           5.26772425119365     -4.82555271570993     -2.74436195079146
  H           5.28403627335316     -2.64981574665707     -2.50624970262639
  H           2.73108063120144     -4.20796750364740     -1.88867318599371
  H           1.98835921297104     -1.80155988252109     -2.41607702686048
  H           3.52815056402923     -1.24600118210105     -1.69217934592809
  F           2.99397260902208      0.98636102746069     -1.65531080244126
  F           1.13243022649933      0.34060390566507     -2.50771941266071
  F           1.20846296238044      2.12820973307742     -1.32314809399827
  C           1.36237984311616     -2.79023792237083      1.90888130478963
  H           0.93847683954901     -2.82310886599922      2.90990048206951
  H           2.42866269882204     -3.02305423266763      1.94483538810897
  H           0.85898608003386     -3.51481283973064      1.26538509871960
  C           6.50213818881462     -5.08271606684897     -1.88034794609645
  H           5.56784773045183     -4.81159259038607     -3.79592295515462
  H           4.54485285090905     -5.63142303371217     -2.60818960029058
  H           7.23765857056747     -4.29409635928812     -2.02101422689749
  H           6.95960974792254     -6.03248255360180     -2.14604172666409
  H           6.22713829503924     -5.11290362213379     -0.82863003042634
