27
Coordinates from ORCA-job NEB_product E -48.230183154680
  C           3.30124520656101     -1.64216942004306     -0.74683421918082
  C           2.33081995840436     -2.47704817822458      0.08647064303200
  C           2.64069604943673     -0.31629877498822     -1.10072212647584
  H           4.15877965558989     -1.39153113165962     -0.11497693962378
  O           2.84319492545255     -2.69287887892066      1.29751796695680
  C           3.78629432003534     -2.38698466773100     -2.01350512799163
  C           2.67728514223223     -2.55330537624686     -3.01306586830585
  C           2.74880649074174     -2.12413029644278     -4.25818160236176
  O           1.26697935285028     -2.88814700942650     -0.28018731303376
  C           4.36282850384528     -3.76569246691903     -1.65313109431391
  H           4.58225302418850     -1.78066654054345     -2.46101284170533
  H           1.79836304766780     -3.06587561441497     -2.65023095884130
  H           1.94264036272330     -2.27208721014217     -4.95485356956176
  H           3.61473657247464     -1.60157512408499     -4.63213462013522
  F           3.43685649814027      0.44075919566701     -1.87348522760023
  F           1.47531239791416     -0.41717724355906     -1.73519288760109
  F           2.40505834913914      0.40974637014526      0.00938334881458
  C           2.04098191052992     -3.45583074632123      2.19280210862611
  H           2.59839689310050     -3.51414648451886      3.12348532508049
  H           1.86568514076216     -4.45291746277030      1.78474039061700
  H           1.07989322931909     -2.96328126865961      2.34859163991600
  C           5.56112630542913     -3.70189136737179     -0.71287937673201
  H           4.66503173508297     -4.24451467358391     -2.58689612162352
  H           3.57665179438481     -4.38078712084420     -1.21037371073609
  H           6.31683942025251     -3.02327396957400     -1.10247471463674
  H           6.00763868411490     -4.68867137140073     -0.61739665153637
  H           5.26970502962677     -3.36852316742072      0.27984354895403
