23
Coordinates from ORCA-job NEB E -40.378874641010
  C           0.54368848534750      0.81429223914641      0.19782006880753
  C          -0.59786617959966      0.82002074036228      1.01550267825503
  C           0.51133867926171      1.67242407568903     -1.04287107555920
  H           1.49508514932797      0.85734447633851      0.71976912434664
  C          -0.49594917771067      0.55279896882258      2.49447507756627
  C           0.47560544670910     -0.98972870645427     -0.46592281638953
  C          -0.80051676044726     -1.02675024481655     -1.02386873591250
  C          -1.93263987013167     -0.81377760650578     -0.16923315134524
  O          -1.77074382502662      0.62770490513747      0.46171392235305
  C           1.67737895701580     -1.20298057477347     -1.34815818520851
  H           0.59249652899087     -1.46014872256457      0.50469489970714
  H          -0.91244530695821     -0.81771317022747     -2.07850268834967
  H          -1.97683292220015     -1.44776260337646      0.71413609074789
  H          -2.89393116795650     -0.74728738986892     -0.66723769487991
  H          -0.47159104215328      1.64298109226511     -1.50359092425390
  H           1.26356364830389      1.36777087926816     -1.76284210648917
  H           0.72300514000973      2.70067969318119     -0.75073363484910
  Cl         -0.21620320899932     -1.20111710458656      2.89309036578621
  Cl          0.84451579451261      1.45611574076635      3.21692941829398
  Cl         -2.00361843088282      1.02494327002510      3.29526101941521
  H           2.56594945972870     -0.74375677082919     -0.92247704626656
  H           1.51498583691279     -0.81288593690753     -2.34942429364722
  H           1.86472476594550     -2.27316725009141     -1.42853031212844
