23
Coordinates from ORCA-job NEB_product E -40.413647615420
  C           2.58639676891698     -1.62424681110167     -0.41665583360094
  C           1.48571496184356     -1.30460203412738      0.55572140854978
  C           2.63222283637765     -0.52741005734882     -1.48109899164674
  H           3.54569791558771     -1.67443306584606      0.10354758798740
  C           1.88714341476053     -1.37764863515376      2.04848280371100
  C           2.28326489963648     -3.04093170738107     -0.99542844075665
  C           1.03695589216984     -3.03732923165127     -1.82679284734131
  C          -0.11767782992908     -3.53451320472530     -1.42598890403398
  O           0.36917359503820     -0.99709947914886      0.25784540645774
  C           3.47493033943286     -3.55647071965184     -1.80116281595844
  H           2.13321647942618     -3.71053775714065     -0.14213735274120
  H           1.13031574115747     -2.59753703099734     -2.80991829147502
  H          -0.23730143439398     -3.98140943216711     -0.45243868248665
  H          -0.99440596259744     -3.51272312759173     -2.04960474742128
  H           1.64720184205148     -0.38535288204954     -1.91615793865945
  H           3.34009314369034     -0.78313318812222     -2.26326278269354
  H           2.94693734654554      0.40948103736285     -1.02681201309070
  Cl          2.73385387092849     -2.88437584953901      2.43210302758689
  Cl          2.98900437891000     -0.00320805783579      2.32302885533482
  Cl          0.47464905168343     -1.21708616818333      3.09631512766423
  H           4.37816905626218     -3.55049374834193     -1.19580231210510
  H           3.64325557108639     -2.95193216156040     -2.68818362104562
  H           3.28048812141517     -4.57780668769778     -2.11959864223523
