23
Coordinates from ORCA-job NEB_reactant E -40.403142174200
  C           1.80163015257535      0.21402836411509     -0.12285525720748
  C           1.65155362374868     -1.03440101408678      0.31597824402225
  C           0.95603673552688      0.85156948300621     -1.16921491799771
  H           2.58124569799010      0.82354527001283      0.30943649606273
  C           2.54046388032740     -1.56120685837694      1.42839367569656
  C           2.12244602087913     -4.75172231942569     -1.20307576274329
  C           2.16201888474298     -3.43505543869484     -1.32589034572941
  C           0.94675245452730     -2.56133576251655     -1.37165018669815
  O           0.69092010537640     -1.89787935862272     -0.12318513575339
  C           3.32353759748696     -5.62778284361539     -1.11682230273560
  H           1.16670317364401     -5.25865731960261     -1.15859013647219
  H           3.11167321435882     -2.91734705609415     -1.35965709791685
  H           0.04500584529615     -3.15364417946970     -1.53846010425441
  H           1.04979053930511     -1.81338757737770     -2.16827766715317
  H           0.07408242641002      0.25144687031363     -1.37518502724381
  H           1.52747248644505      0.98247296108806     -2.08854968098068
  H           0.64417054184721      1.83853842091332     -0.83275940397855
  Cl          4.24406078915800     -1.62019629815469      0.88585568539324
  Cl          2.47711534971833     -0.47610344824577      2.84159275832005
  Cl          2.06200323378802     -3.17664868116989      1.94763693469796
  H           3.31250061942884     -6.17754167520415     -0.17619944794542
  H           4.23845607738605     -5.04372098475967     -1.17193901415652
  H           3.31736055003320     -6.35827055403191     -1.92518230522615
