18
Coordinates from ORCA-job NEB E -32.639823793040
  C           1.25159017731460      0.25081582673189     -0.53353137605399
  C           0.76775102750421      1.54526516902637     -0.19377326321696
  N           0.87835443554262     -0.30875797675079     -1.70728181570192
  H           2.20116024307760     -0.08055655861413     -0.12973306610436
  H           1.29473462675983      2.08143573678263      0.60287953621308
  C          -0.07561097470823     -0.56284654123019      0.91745443739500
  C          -1.30852519402158     -0.19482912721002      0.36118966199285
  C          -1.74256724303851      1.10779184744182      0.45715414484978
  O          -0.35942138932180      1.92859751904557     -0.58510942873415
  N           0.40227815266061     -1.88419147783095      0.73994344745221
  H           0.29182072059083     -0.10530633630102      1.82559117316288
  H          -1.72724542504139     -0.85615210958751     -0.38543185492018
  H          -1.49136155565242      1.70018197224509      1.32241083329619
  H          -2.62352268603000      1.42096671904625     -0.07713355398904
  H           0.98204466366288     -1.30901353929527     -1.82240041292314
  H           0.02046407022329      0.07138090643428     -2.08840955183872
  O           0.06191004327313     -2.48028011166177     -0.27195819740663
  O           1.17614630720432     -2.32450191827225      1.56813928652711
