18
Coordinates from ORCA-job NEB_product E -32.662169633610
  C           1.54735100915740     -1.78229099057106      1.52510956654925
  C           1.49754666456027     -0.26266360288475      1.49588066038196
  N           1.04246642352511     -2.40372535850460      0.32375221924065
  H           2.58771710901806     -2.08804349334473      1.70088064270722
  H           1.90532866758389      0.22335587028828      2.40202972056322
  C           0.72900348814875     -2.25950734143228      2.75781699477716
  C          -0.74244054062873     -2.08904757242326      2.56465496701956
  C          -1.46442919909076     -1.21057377372892      3.23409966282642
  O           1.04901646064687      0.36726635265284      0.58306993965596
  N           1.07599343533196     -3.69870804513918      2.98532367178642
  H           1.08191418377525     -1.72094023905294      3.64478507360563
  H          -1.18381719657831     -2.73736889368456      1.82310798871756
  H          -1.03396077770337     -0.56310364765994      3.98129991749583
  H          -2.51962587043103     -1.09951387103746      3.05973431404840
  H           1.76619168668442     -2.49624893289389     -0.37722445260443
  H           0.29978157699096     -1.83457342858682     -0.07201995756007
  O           0.17924145897045     -4.49423829173351      3.04247914527921
  O           2.24952142003880     -3.94327474026321      3.11891992551004
