22
Coordinates from ORCA-job NEB E -56.630896097320
  C           0.76420274645295     -0.30160579779661     -0.12754498124039
  C          -0.36624190532619     -0.44008908075335     -1.11078654039157
  C           0.64172510058725     -1.33910817906695      1.00868445917304
  H           1.71944738307022     -0.50883629601376     -0.61723160751962
  C          -0.14962247766924     -1.37547426066544     -2.26178374629709
  C           0.67669103519080      1.17134082951474      0.30578932501513
  C          -0.69267002625361      1.63566887519107      0.05933145242364
  C          -1.87368330144885      0.74982443124446      0.06284275329527
  O          -1.65694977168075     -0.39928016714200     -0.69208082582541
  N           1.10955790849233      1.43499040074946      1.77213930703691
  H           1.40939269701708      1.74145649084850     -0.27359783696230
  H          -0.89708909672947      2.65975236560822      0.34113010427442
  H          -2.74508948809110      1.24384732954872     -0.38055150436899
  H          -2.14885780745537      0.49894738750823      1.10091747973599
  F           1.72072352675947     -1.28195922299241      1.81603083351155
  F          -0.43523634068488     -1.10721283540780      1.78934970305531
  H           0.56240284869799     -2.36358736267520      0.61489471347628
  F          -1.16461841145200     -1.38442070329971     -3.12006873013822
  F           0.95803066450384     -1.04126914161611     -2.94730176587745
  F           0.04659890828327     -2.66466369724095     -1.87808276334513
  O           2.29021014452658      1.52204619730052      1.95769770354785
  O           0.23107566320969      1.54963243715636      2.58022246742080
