22
Coordinates from ORCA-job NEB_product E -56.684616205130
  C           2.45215916744705      2.08405344491464     -0.06214940314448
  C           1.60485041924150      1.85509783352786     -1.29141355359905
  C           2.42932311223971      0.87602189873234      0.89533319098166
  H           3.49996394334078      2.19713347678721     -0.39557544189611
  C           1.88663199944005      0.50730538253743     -2.02600272905298
  C           2.05733670821587      3.40277736459319      0.63120112926123
  C           0.94331767387343      3.29114547673317      1.63127832469490
  C          -0.30360863212594      3.61534039296963      1.34839404858417
  O           0.80444415398460      2.62018101586209     -1.73338758135055
  N           3.27691502074780      4.00140915031358      1.27946958292406
  H           1.76701976517095      4.11268318632559     -0.15559832547933
  H           1.22168872375064      2.92148872066096      2.60731648672735
  H          -0.59297136576745      3.98477727435301      0.37829475290020
  H          -1.08624314131884      3.50897833570513      2.07749343223754
  F           3.06018948613552      1.20269131081053      2.04106372095425
  F           1.16623504958807      0.54184744961094      1.23056999240871
  H           2.92249724650256     -0.01760557102727      0.48499356509197
  F           1.50773394070837      0.55970528090129     -3.29487065526487
  F           3.19701059421178      0.20888656945374     -2.00238151977170
  F           1.24693354784898     -0.51264002075383     -1.44379568504217
  O           4.33976011635920      3.77305403600051      0.75576434960081
  O           3.09291247040537      4.69416799098825      2.23920231823440
