22
Coordinates from ORCA-job NEB E -54.693761785830
  C           0.64989298181403     -0.35679183504322      0.49877592799103
  C          -0.65727813554201     -0.77549573444501      1.00057567780798
  N           1.13590980664200      0.72472745399463      1.41740051487144
  H           1.40975378494776     -1.13905303205781      0.44333639956148
  C          -1.04453246293745     -2.19434189846807      1.01046636277542
  C           0.42166753559361      0.33354526016028     -0.96023281728124
  C          -0.57308535590266      1.37877603175790     -0.78026767575343
  C          -1.83470038081332      0.97096276100993     -0.28630707823321
  O          -1.58949462172510      0.10653929444476      1.07350053491818
  C           1.75810182246035      0.80167561783610     -1.53301394191130
  H           0.07186141471598     -0.50189071417714     -1.57786300816725
  H          -0.26588737865519      2.40916629635142     -0.72525616492076
  H          -2.34548982223567      0.18804614951168     -0.84561689626151
  H          -2.50387668752434      1.75928311061439      0.03529010371935
  O           2.09875122460219      0.45251844618038      2.07894988556687
  O           0.47616191673127      1.72799142326196      1.45351707125026
  Br          0.32069543083143     -3.40234558650721      1.62883688163264
  Br         -2.68915271550041     -2.46669078502947      1.96995039544789
  Br         -1.45050440074927     -2.73189758733080     -1.00175875172420
  F           2.35483485916796      1.71246444489777     -0.73602070635803
  F           2.61054212079787     -0.24333674196350     -1.63051264893295
  H           1.64582906328098      1.24614762500101     -2.53375006599867
