22
Coordinates from ORCA-job NEB_product E -54.721320444350
  C           2.03459290810581      0.16929769966593     -2.37011580487996
  C           0.72353486028447     -0.55511074591846     -2.63014950638500
  N           1.91094140481060      0.79246061581602     -0.99835346927084
  H           2.90580573057025     -0.49188670962425     -2.34987288956992
  C           0.77079132687064     -2.07471279745982     -2.62262351031446
  C           2.19888383917969      1.31914908564898     -3.38563479513948
  C           3.37455818189671      2.18498300459848     -3.01728823112432
  C           3.25004899771101      3.42417935012563     -2.58329065390885
  O          -0.31596974781268      0.02070609628475     -2.74825147062638
  C           2.40037350802705      0.74309858398024     -4.78947908146437
  H           1.27175150901453      1.90367604748843     -3.38215669601308
  H           4.34247823661149      1.71423516772993     -3.12002609937192
  H           2.28699769707138      3.89279503203160     -2.46603169741735
  H           4.10929757398391      4.01374080709946     -2.31705084248284
  O           2.60744263939916      0.31702958737532     -0.14638419180670
  O           1.13340710967081      1.69463659191280     -0.88268841937040
  Br          0.97699813467083     -2.51312144999979     -0.70725325110838
  Br         -0.90041233521757     -2.77675391285040     -3.27508458100758
  Br          2.23871619478066     -2.84323479120103     -3.61502644501165
  F           3.53283123111737      0.00805448497117     -4.84898500161351
  F           1.39022304351415     -0.09981702468162     -5.11628900562679
  H           2.45630795573975      1.52469527700663     -5.56026435648618
