20
Coordinates from ORCA-job NEB E -36.894404923250
  C           0.80504019509272     -0.50852988504287      0.44256714016002
  C          -0.46901957701656     -1.09346731225473      0.61498889561704
  C           1.29764134343833      0.45218860995275      1.49077062442335
  H           1.56919827521056     -1.19234849756823      0.07695023109254
  N          -0.74716003624920     -2.30506994954460     -0.11718606067639
  C           0.38543472410691      0.54365581730390     -1.06333851353783
  C          -0.73316306229417      1.28671525467096     -0.64764806438941
  C          -1.92793680984934      0.56328248056197     -0.29906008842287
  O          -1.50164661746183     -0.34153050100430      0.88910501452474
  C           1.58617655122535      1.26051763305685     -1.35381228326689
  H           0.22359308461227     -0.26543500985980     -1.77408008360069
  H          -0.57436358701236      2.26766643235835     -0.22371281248272
  H          -2.29717398075777     -0.14732776359701     -1.04065341313616
  H          -2.73360084456553      1.16438349291625      0.10939591058663
  H           0.47472279777325      1.02855949084160      1.90691899194481
  H           2.05310320615331      1.12616671794237      1.09504078641846
  H           1.75096854975719     -0.12882828761347      2.29275898620692
  O           0.20131546190517     -3.00639977572645     -0.42730023889169
  O          -1.91036058003568     -2.53817149415203     -0.38465662110327
  N           2.54723090596737      1.83397254675849     -1.58704840146660
