20
Coordinates from ORCA-job NEB E -45.272126317830
  C          -0.57430705589881     -0.49148026703972     -0.38781400493906
  C           0.31453142937041     -1.31704016807017      0.34635384051764
  I           0.04575766337249     -0.47471535130763     -2.63362248528399
  H          -1.57903045148942     -0.89533893757795     -0.46380419089590
  C          -0.03479168988183     -2.70733348633448      0.75737598823181
  C          -0.55348227452571      0.97001594817655      0.15482992980413
  C           0.85041851276485      1.41540784563544      0.29970394536315
  C           1.91556120472928      0.39835417302198      0.36909364942966
  O           1.55499650538344     -0.91554769228829      0.67006317420694
  C          -1.39086591040031      1.96975747204504     -0.65444265011783
  H          -1.08554011701272      0.91781591913949      1.11958680977221
  H           1.13660579206765      2.34615376527684     -0.16225570405204
  H           2.68896905040328      0.66148022874439      1.10001919012988
  H           2.41267955077378      0.38111202955329     -0.61793254975159
  F          -1.16808392712392     -2.70367625482239      1.54565578515410
  H           0.77545257654546     -3.14244336087790      1.34768167568348
  H          -0.27037560283163     -3.34482895689439     -0.10459499600676
  F          -2.52547876684671      1.42486570296815     -1.11282134416673
  F          -1.75418767689905      3.00082864746522      0.12731309176934
  F          -0.75882881250054      2.50661274318654     -1.70038915484842
