20
Coordinates from ORCA-job NEB_product E -45.328736880270
  C           2.06521638061699      2.00107743365639     -1.57109913239908
  C           0.65526426145147      1.78175764164175     -2.10820192376787
  I           2.14955363750355      0.75331528570267      0.19792602182910
  H           2.83142603497762      1.61000616622094     -2.24133479657041
  C           0.56850080127092      0.64871302909190     -3.11292532949435
  C           2.31458139594570      3.46848189058203     -1.22787556482755
  C           3.49525583462397      3.68347412325153     -0.32132483284051
  C           3.42720570375496      4.36143722178760      0.80788906755531
  O          -0.27515034716749      2.44044962280610     -1.74662300390460
  C           2.57423086003047      4.21095202066298     -2.53928228064160
  H           1.40551400140001      3.89456548983043     -0.78626155000287
  H           4.42428920520761      3.24790442675524     -0.66365420621361
  H           2.50759480562223      4.80336351839473      1.15383361818633
  H           4.29129554634044      4.49495299408635      1.43392418999783
  F          -0.72237839266894      0.36635957899730     -3.43176376709289
  H           1.02070667755276     -0.26766057332913     -2.71402210374613
  H           1.08073720616385      0.94824637526426     -4.03686911928384
  F           3.71861797117277      3.80996310785365     -3.12057398034350
  F           1.61295794313422      4.00667107825931     -3.45443103510970
  F           2.66968047306689      5.52856956848396     -2.36023027133006
