20
Coordinates from ORCA-job NEB_reactant E -45.320317934840
  C           0.45564295753973      1.02328111580171     -0.57595663390192
  C           1.74688733809336      1.26358775515288     -0.78497220215997
  I          -0.58951973498349      2.05446138619203      0.91402099468313
  H          -0.10786844897094      0.28194520903196     -1.10823817827663
  C           2.51088309971693      0.50064549140510     -1.83706954738849
  C           1.92431320900390      4.30890691502993     -1.74630541662071
  C           3.15505635190183      3.88980593405827     -1.50497987591933
  C           3.50435249650669      2.85579716915865     -0.47840603818062
  O           2.39230466046344      2.14808431697236      0.02289228787348
  C           1.60577118309318      5.33429988945165     -2.78478889466541
  H           1.05809159614038      3.95368526360813     -1.20908939545132
  H           3.99414654966259      4.28379680488359     -2.06048987954063
  H           3.93618490167562      3.35189238514963      0.39812376794971
  H           4.26412888603032      2.18064462379823     -0.89128351036487
  F           2.88317376820393      1.31196384402177     -2.88493973400499
  H           1.88920611540857     -0.29364189788946     -2.25666483721439
  H           3.43342037443967      0.07575163946687     -1.42314349313069
  F           2.67783953669510      5.75493517622504     -3.46962071785622
  F           0.72735467185726      4.87173313362818     -3.69128349885078
  F           1.04313048752192      6.43212384485347     -2.24730519697936
