27
Coordinates from ORCA-job P E -37.965024526110
  C          -1.40752180049446      0.33367697776092     -1.89876130262417
  C          -0.61035537939473     -1.92583151110552     -0.09773124187594
  C          -1.21777192938256     -2.10969416309879     -1.45302227823394
  C          -1.57107506351821     -1.11882527491776     -2.25244231272836
  C          -1.27289824970484      0.48225254583879     -0.38294079016654
  C          -0.20387998223944     -0.47435540223713      0.15188773179936
  H          -1.36378238935415     -3.13594801746648     -1.76030591544242
  H          -2.00501406307329     -1.32384361067092     -3.21877382594526
  N          -2.55819360459868      1.09903496669961     -2.36836097561957
  H          -1.33185618300650     -2.24340077049813      0.66125627557243
  H          -0.47406257878643      0.70175044046521     -2.37807051295061
  H           0.26791545609191     -2.56996194763761     -0.00954156325915
  H          -2.23358016122004      0.23922035632592      0.07452853977313
  H          -0.07310836277840     -0.29760600452873      1.22554418430595
  H          -1.01159364360927      1.51077356322885     -0.12617958901538
  C           1.13791555097037     -0.17840311720920     -0.49663014573366
  C          -2.50802626896314      1.43666507789825     -3.77520648161641
  H          -2.62766691729631      1.95451746781963     -1.82489791916573
  H          -2.54548512106074      0.52452557272373     -4.36898159001875
  H          -1.59861155068433      1.99144298328496     -4.05806794372269
  H          -3.37861976606150      2.04176131019125     -4.02200023145721
  O           1.83625507603762     -0.97365783013706     -1.06525739474931
  O           1.48027930649935      1.10817756136371     -0.32812052308293
  C           2.72668143739237      1.49989027864759     -0.88554013211396
  H           2.88011574909819      2.53540643121319     -0.59283387234758
  H           2.70125033082354      1.40888315848753     -1.97356853962303
  H           3.52937010831366      0.86754895755821     -0.50113164995826
