27
Coordinates from ORCA-job R E -37.882413330190
  C          -1.00730905367935      0.15901710738877     -3.00457188932632
  C           0.77811776131178     -1.98755294837672     -1.81925222349692
  C          -0.52819642774479     -1.82259481291806     -1.60286971652443
  C          -1.40067028974424     -0.84860733264522     -2.21427504102797
  C          -1.57856409077170      0.99964913787144      0.30167037948525
  C          -0.77364241270295      0.18911929593219      0.97237835419062
  H          -1.02034648661151     -2.48298427776279     -0.89833090387084
  H          -2.44809897908753     -0.95770912533591     -1.97909958328152
  N          -1.79785449264827      1.15546666847147     -3.52316334632374
  H           1.34297269131637     -2.74326738204981     -1.30157021659418
  H           0.03880462306445      0.28840521288070     -3.22242511051593
  H           1.33015979026743     -1.38063932556195     -2.52031371325531
  H          -2.63736239432470      1.02297079674612      0.48004412501895
  H          -1.14031950561931     -0.49953369085711      1.71844733830088
  H          -1.19371649357275      1.66987747174552     -0.44696232900152
  C           0.68306658909996      0.10862690303105      0.76633930728259
  C          -3.23918271483427      1.06609297029465     -3.48216367526133
  H          -1.42610359219651      1.61288823606635     -4.34091817562130
  H          -3.56095384775852      1.01280245837353     -2.44371058839835
  H          -3.62392492721610      0.18809353467738     -4.01347083089252
  H          -3.66701572218396      1.96158736122213     -3.92787865289661
  O           1.41148947280487     -0.63473300914398      1.38272943634592
  O           1.13812691821765      0.95515316346467     -0.17085562099387
  C           2.53121095195739      0.88825533754685     -0.42623843518517
  H           2.72319278369634      1.53477768327708     -1.27833402151597
  H           2.82083653685177     -0.14123113356538     -0.64758193069292
  H           3.09493331210844      1.22954969922704      0.44506706405256
