27
Coordinates from ORCA-job TS E -37.874829232490
  C          -0.76358773660934      0.02157853190059     -1.30469367651276
  C           0.72796173638854     -1.96838222400297      0.15951825769855
  C          -0.51922302831558     -2.19488398657915     -0.33413098754935
  C          -1.25039232767894     -1.24229350201315     -1.06172505578179
  C          -0.68429005576550      0.62558921463456      0.86739078003731
  C           0.08446940392978     -0.25328280017414      1.57803161113879
  H          -1.05401672911286     -3.07780895307392     -0.00994815055881
  H          -2.28426482130667     -1.46447664936209     -1.27715015273270
  N          -1.45196596993470      0.99526521514684     -1.98091141058345
  H           1.19687732628518     -2.68973860863038      0.80740638233465
  H           0.30288323888887      0.18583975049853     -1.30018241663652
  H           1.39291000331387     -1.26147873175245     -0.30228875024805
  H          -1.75574915689515      0.59393210923647      0.96223202185231
  H          -0.37149182462490     -0.99711577183990      2.21202896914181
  H          -0.25170290939886      1.54899989614901      0.52526274826887
  C           1.50374416414114     -0.01826247274886      1.84514573665779
  C          -2.89500452471212      1.00515767165065     -2.02813373506197
  H          -1.03200768967861      1.91131305708403     -1.94504964545122
  H          -3.34828543690808      1.00538999856952     -1.02990479496729
  H          -3.24947208267870      0.12765453895253     -2.56932148860379
  H          -3.22478180993703      1.89275892761531     -2.56317979079796
  O           2.14278299007284     -0.55081823302414      2.72130429726290
  O           2.05265511876636      0.89147422938010      1.00140100409903
  C           3.42410105223146      1.17203716776804      1.21955620386016
  H           3.72883390063397      1.84943208067824      0.42510209013930
  H           4.01185562760611      0.25179629061135      1.18624535055605
  H           3.56716154129892      1.64032325332537      2.19599460243814
