19
Coordinates from ORCA-job NEB_product E -48.668971516180
  C           1.70141708180867     -0.70773244480318      1.96663675957216
  C           1.27504733898227      0.56920604505036      1.28757530766552
  C           1.43937033567282     -1.89116298852569      1.02013408521022
  H           2.79165489289783     -0.67073896055210      2.13384985463181
  Br          1.72575538928547      2.14586293918626      2.35223225744284
  C           1.04122667841187     -0.90756649095597      3.34356676640389
  C          -0.37148192976243     -1.40950930682011      3.29209186875006
  C          -1.41480846331648     -0.61985589724212      3.46267672936029
  O           0.75048651964357      0.70580051839144      0.24367949886941
  N           1.89985561756681     -1.84313668728499      4.17188069773433
  H           1.07695666791886      0.04837367844321      3.88458941235141
  H          -0.49249654416633     -2.46672191312041      3.10637365218638
  H          -1.31192413269966      0.43527804687041      3.65922807181068
  H          -2.41802405801497     -1.00142455153397      3.40798111587743
  F           1.69143867203235     -3.05504194888884      1.63216309126285
  F           0.18197967637319     -1.95408350909378      0.58171706216049
  F           2.23381912923507     -1.83011303908930     -0.04924972155102
  O           1.32518269351842     -2.50652094986237      4.98546049905575
  O           3.08524443461269     -1.80841254016884      3.97281299120551
