19
Coordinates from ORCA-job NEB_reactant E -48.658027683840
  C           1.57422334627180     -0.01114246080711     -0.13156723283617
  C           1.11441936058603      0.32097352408160      1.07805026177167
  C           1.82471697705101     -1.44177577176283     -0.48192932307103
  H           1.77854396602967      0.71826082116214     -0.89321762319482
  Br          0.81219994836636      2.16065554549210      1.46491568474439
  C          -0.52813655634521     -1.59852414991200      5.16065378195245
  C           0.26827486749997     -1.45446163719155      4.11045659941615
  C           0.36893798468972     -0.21540577690422      3.29004472257829
  O           0.86473210842746     -0.57878967125042      2.01362593320339
  N          -0.53979261626630     -2.82184857048947      5.91913769457872
  H          -1.21375574122776     -0.85411841346963      5.53651441944116
  H           0.91075862312926     -2.27343856030924      3.80904260526048
  H           1.06608864171825      0.48355451915826      3.77820339134492
  H          -0.60606925596755      0.28074946256896      3.19822861958230
  F           2.70818686313610     -2.03350858638545      0.34156641865493
  F           0.71067707069595     -2.19397997994920     -0.42894040620676
  F           2.31174561595843     -1.56259956163049     -1.72049829019735
  O           0.22598893816384     -3.70075744168565      5.59961672704557
  O          -1.32954014191703     -2.87464329071581      6.83429601593171
