26
Coordinates from ORCA-job NEB E -46.338154602570
  C           0.44534483443795      0.45857441503832      0.58982004522513
  C          -0.89513881259402      0.03974535974472      0.70670649699900
  C           0.72635268959755      1.88836873788430      1.00946186916143
  H           1.18629682584237     -0.22458247933909      0.99190752503059
  C          -1.28118308428618     -1.36386461116023      1.08233431438069
  C           0.70527089122251      0.53443326687981     -1.31345772894127
  C          -0.55588416313964      0.45238404953499     -1.92827532754732
  C          -1.56263600062065      1.28929455791636     -1.34584401790180
  O          -1.82518905059928      0.74024600844482      0.11417711394383
  C           1.73720722372104     -0.47977509332418     -1.71043516199180
  H           1.14788411787953      1.52806131362631     -1.30621677860869
  H          -0.88670801945180     -0.51473000808140     -2.28986916356625
  H          -2.55057367601698      1.21447994496371     -1.78777412579316
  H          -1.27200085117039      2.32840229954657     -1.19533492655317
  F           1.93528889754947      2.34617141438674      0.55032912807612
  H           0.78112691523558      1.93225158433438      2.10341036838096
  H          -0.03775226889409      2.58447924398478      0.65231243381981
  C          -0.38690694243362     -2.02306788581418      2.12319335497019
  H          -1.29629760190514     -1.97183208286991      0.16961842906315
  H          -2.31127141105994     -1.31981740222650      1.44394900253306
  H           0.60008024950915     -2.23679359895564      1.72262185468062
  H          -0.82597624214495     -2.96706253027687      2.43318682680507
  H          -0.28134609844451     -1.38709442876314      2.99873374937917
  Br          2.15268142259747     -0.25950336604295     -3.62600717234973
  Br          3.41593199306527     -0.27633945502823     -0.73558440812196
  Br          1.13539816210329     -2.31242925440349     -1.45296370107364
