26
Coordinates from ORCA-job NEB_product E -46.391780303220
  C           2.63929083253896     -1.11799672869950     -1.71584974331849
  C           1.34393027565509     -1.92884542550914     -1.61565248456140
  C           2.30528518214827      0.25164081630291     -1.10736843492808
  H           3.41116166309039     -1.57565043401104     -1.08834988623720
  C           1.26425930196207     -2.83055528558881     -0.40724537577664
  C           3.21812373485966     -0.88790886966937     -3.13162411241055
  C           2.20842087884022     -0.33736552377536     -4.10133764241421
  C           2.26908758778468      0.89418387056699     -4.57264085256822
  O           0.43352568863924     -1.78749035786694     -2.38813571983659
  C           3.87598833114822     -2.12308315118478     -3.73003797504793
  H           4.02363483062692     -0.14729819628120     -3.01196880150496
  H           1.41020234941046     -1.00504896783197     -4.39093413677661
  H           1.53373086223381      1.26557543081633     -5.26430243044511
  H           3.05193857999859      1.57980829447864     -4.28885469985635
  F           3.44744448398487      0.99493684719535     -0.96645375745818
  H           1.87033521015647      0.14704792250542     -0.10881013888864
  H           1.62830673408281      0.81379167085679     -1.75792477231469
  C           2.05286414384073     -4.12855057366595     -0.59871244653547
  H           0.21410354454168     -3.07279895817544     -0.23855047849957
  H           1.65462191785260     -2.29810291288049      0.46251333693975
  H           1.65732027093771     -4.69177229900307     -1.43939008055784
  H           1.96524503642929     -4.73918639407121      0.29579299316923
  H           3.10845623611666     -3.93368739191577     -0.77053116760248
  Br          4.71927235103682     -1.63944560746980     -5.43350049664774
  Br          5.30011362466746     -2.81893135932200     -2.57657611066666
  Br          2.63963634741631     -3.58106641580058     -4.08615458525539
