23
Coordinates from ORCA-job NEB E -57.217063486470
  C           0.18405552727707      1.07052695470036     -0.67469047931065
  C          -0.12995650292508      0.28690387494858      0.52967022849144
  C          -0.77882379140242      2.01411772674956     -1.29286295597079
  H           1.22548989397223      1.28441618390388     -0.85852207083381
  C           0.29081906083475      1.01651949979356      1.82749938060343
  C           0.44992717235882     -1.22109112865196      0.50193990629076
  C          -0.68885017455181     -1.94204543920483     -0.10203708311961
  C          -1.73320791275172     -0.94397754543188     -0.32063498057381
  O          -1.51894193956151      0.06448504959235      0.63952342475439
  C           1.75600628977092     -1.52325864335831     -0.23428003029904
  H           0.59218625642777     -1.48742660748541      1.55537022407398
  H          -0.55623272942558     -2.78261880100466     -0.75576595469773
  H          -2.77238891613337     -1.25846102322434     -0.33019092590501
  H          -1.44825180833765     -0.44724471299200     -1.30136331104610
  F          -0.36347526577022      3.31935631202075     -1.06595718052870
  H          -1.78027965232772      1.92477318607779     -0.86002326063254
  H          -0.81486286805375      1.92095508412805     -2.38611508976597
  F          -0.50014296060943      2.06127407901158      2.04533734651559
  F           0.20195014972649      0.22431828534219      2.90486085364259
  F           1.54504793323484      1.46831614359082      1.79168553953449
  Cl          2.19402641622357     -3.22302867100177      0.07823343378025
  Cl          1.54615069390859     -1.33137951331364     -1.99121917811663
  Cl          3.09975512811518     -0.49543029419066      0.29954216311349
