23
Coordinates from ORCA-job NEB_reactant E -57.297633229980
  C           1.99184852698488     -0.30678238782437     -0.04678697435468
  C           1.52581400703349     -0.94885781753660      1.02043429994080
  C           2.02825291160993     -0.71635099581183     -1.48584652746702
  H           2.40771407601290      0.67730611583843      0.11541871241835
  C           1.58396185771197     -0.28375100471066      2.38782508272921
  C           2.76017230100107     -4.27850293354646     -1.11611671483957
  C           2.35178319773201     -3.70610280693872      0.00592948161061
  C           0.97179035369435     -3.15542372213998      0.20491995198567
  O           0.92901902042917     -2.15609054437682      1.20222005332153
  C           4.11379017145916     -4.84210392347211     -1.35646132510917
  H           2.10287139702778     -4.37337466681338     -1.97021953453149
  H           3.00466029042659     -3.61977187551176      0.86295407004758
  H           0.32751105317022     -3.94435322535657      0.61061679145378
  H           0.53718298013654     -2.80272467043697     -0.73602328963350
  F           2.79285702101068      0.18010998581155     -2.18482374906581
  H           1.03039875035308     -0.68201382124670     -1.94272687879325
  H           2.48483375806018     -1.69964910022219     -1.64327443801983
  F           0.36777988530077     -0.16245937431349      2.93267693546994
  F           2.32212208770607     -1.00258911964818      3.24465613910174
  F           2.11573141051508      0.94188957001125      2.35791418983113
  Cl          3.96276683402843     -6.55834008665761     -1.83389785185557
  Cl          4.86885671663117     -3.94810261480715     -2.71603115390395
  Cl          5.19048139196447     -4.74116098028968      0.04124272966347
