21
Coordinates from ORCA-job NEB E -44.849355433250
  C           0.68773300245337     -0.88190393743092      0.45423764902839
  C          -0.68256484322779     -1.16419943780734      0.62781590203688
  Br          1.68473392245405     -0.82404869129674      2.06865799148401
  H           1.26123414406318     -1.33811771564990     -0.33954181135741
  O          -1.45307770730671     -1.61506982853381     -0.39542012044643
  C           0.38479126825138      1.02669995924075     -0.10022541817043
  C          -0.24602109671283      1.55294620891577      1.03198777094198
  C          -1.52498029798612      1.06054948423721      1.34928276784307
  O          -1.30687032687296     -0.63842242348035      1.59834439241416
  C           1.68440074820782      1.60185212693393     -0.58405665306422
  H          -0.25515716220591      0.78748974073320     -0.94681055379256
  H           0.36462068856856      1.97250506053312      1.81709860684978
  H          -2.24895489974645      0.96830723552568      0.54763057738945
  H          -1.95390321130932      1.34617220697478      2.29870123030164
  C          -0.85114255004720     -2.24695885308643     -1.50592450699909
  H          -0.17955388244412     -3.04978984412859     -1.19061514473016
  H          -0.30246385174390     -1.53444529484778     -2.12824043792688
  H          -1.67337863887158     -2.66874921858851     -2.08121401150160
  Cl          1.29593101727080      3.13234196135256     -1.45041552973696
  Cl          2.83757741838018      1.98312351908364      0.69697345723621
  Cl          2.47704625882556      0.52971774131973     -1.76826615779985
