21
Coordinates from ORCA-job NEB_reactant E -44.878866391230
  C           1.50048480544229      0.35871433634478      0.20309934173793
  C           1.84641179518344      0.63051962052675     -1.06006855532638
  Br          1.75863462665492      1.39964645199031      1.76115975208392
  H           1.01539718897186     -0.57966647440585      0.40141987277150
  O           1.53825593340250     -0.33616740341628     -1.96089518278308
  C           3.23736620332968      5.13184959130147     -1.75728088650511
  C           3.39830154665663      3.82140165075251     -1.84719331751701
  C           2.79373817580521      2.84604588643089     -0.88895956523210
  O           2.45079299323364      1.69077872965911     -1.63349169932711
  C           3.84471855458497      6.14014827284416     -2.66309433909386
  H           2.63674833889180      5.57010663968382     -0.97204285039345
  H           3.99294793020679      3.37752722283657     -2.63199955589140
  H           1.91269018541118      3.27353478731253     -0.40009473396658
  H           3.53923376430692      2.59398662288541     -0.12216763516106
  C           1.86867466880636     -0.10329491086797     -3.31887662345769
  H           1.52123754475077     -0.98724616728329     -3.84887562224859
  H           2.94713025778976      0.01016557508522     -3.44988610542892
  H           1.36404906990188      0.78580771302812     -3.70342933999549
  Cl          2.54460158509048      7.11998841304977     -3.40549526676930
  Cl          4.88805162498310      7.23771989293885     -1.70754354738973
  Cl          4.81923320659583      5.44243354930310     -3.96068414010649
