21
Coordinates from ORCA-job NEB_product E -44.905730100890
  C           2.48655303637045      2.01818645021949     -1.85901900099725
  C           1.04524364763759      1.96441643205380     -2.38129752484690
  Br          2.50802498396070      0.69601409411382     -0.41362249617900
  H           3.22928829702937      1.67827953206393     -2.58037201747877
  O           0.73829900603570      1.07248134574398     -3.31362075048854
  C           2.83015379619684      3.41534112367946     -1.33621642868291
  C           3.87042672057499      3.39559300909419     -0.24955866078410
  C           3.69171141273559      3.95943980177058      0.92898251780328
  O           0.19587150155148      2.67612740059269     -1.92237024597254
  C           3.31994138722287      4.27676751625259     -2.50496345745313
  H           1.90627346671540      3.86955363022969     -0.95414714158158
  H           4.78865075438164      2.87925884730083     -0.49086452101057
  H           2.77955681508749      4.47359288700539      1.18302727448095
  H           4.45069081094513      3.92112594569323      1.69015294387235
  C           1.68379674242633      0.18453062965646     -3.88527715454004
  H           2.15736693150724     -0.44437641835784     -3.12781343512097
  H           2.44098331446134      0.72451734359324     -4.45961258078577
  H           1.10679004633164     -0.44444062923085     -4.56094807810895
  Cl          2.14304200306832      4.27131087315162     -3.84968650402249
  Cl          3.55559798953858      5.94938112314254     -1.96508255353588
  Cl          4.87003733622127      3.67299906223115     -3.14629018456719
