16
Coordinates from ORCA-job NEB_reactant E -25.789683238540
  C           2.08970299689917     -0.63008852928385      0.13717953277161
  C           1.19133258251113     -1.53350385375004     -0.24082897947227
  Br          3.63071406507890     -0.00271484658728     -0.77557040435604
  H           1.97608821726245     -0.14077756103507      1.08878689212453
  H           0.37657073442761     -1.71732528285949      0.45422155957088
  C           3.41563336292166     -3.80097468540384     -0.92837577562727
  C           3.28814216184180     -2.96249007646829     -1.95330441228138
  C           1.98509485365342     -2.33799874493033     -2.36005481566316
  O           1.01542705332076     -2.30549543302043     -1.32046804260930
  N           4.61439880995040     -4.29418259849308     -0.45492734440761
  H           2.55519356067721     -4.08732278553932     -0.33763897629813
  H           4.14561505120424     -2.66996978003168     -2.54015114257628
  H           1.49983992222451     -2.93171534125646     -3.14543222205660
  H           2.15282640463411     -1.33131053430179     -2.75951674775060
  H           5.39728450218825     -4.17879354481562     -1.08110422439034
  H           4.57803572120437     -5.19813640222343     -0.01221489697804
