20
Coordinates from ORCA-job NEB E -37.112985903480
  C          -0.13698470193612      0.79261659530290      0.93716021546085
  C          -1.47447236254250      0.42243304387559      1.01360542256251
  C           0.25722483648458      1.92527451607802      0.01243030623480
  H           0.41217078422153      0.83061178924134      1.87343178701020
  Br         -1.97376796694790     -0.57439234980297      2.63548163430621
  C           0.53841005098196     -0.85501238167079      0.04579623295831
  C          -0.32545185440262     -0.97276455106443     -1.03949316418503
  C          -1.71470209499596     -1.15813302140018     -0.80362964702949
  O          -2.19189202229486      0.19879572207044     -0.00845769389002
  C           2.01083830865080     -0.63720731609092     -0.20380768449216
  H           0.36767729052107     -1.49047695954479      0.90952782299256
  H          -0.02086156475845     -0.55402520887853     -1.98765879683271
  H          -1.99198804370643     -1.91095699625096     -0.06863202621065
  H          -2.36505302848738     -1.15477224053611     -1.66874852907616
  F           1.52318536450210      2.34435097654814      0.32242520611555
  H          -0.40188117332262      2.78775776882379      0.16750605460104
  H           0.25346372619909      1.64833405867594     -1.04464281135494
  F           2.23219206608848     -0.01694940987143     -1.40493415307005
  H           2.52138535678083     -1.60719848007608     -0.25361596340043
  H           2.48050702896441     -0.01828555542896      0.56625578729961
