20
Coordinates from ORCA-job NEB_reactant E -37.136018622280
  C           1.60514711089678     -0.01588028208810      0.06948579337505
  C           1.95669935608015     -1.29648054268789      0.07073658475487
  C           0.67943396055346      0.55558012980021     -0.96011815774020
  H           2.01269572289889      0.65595026662305      0.80676400907143
  Br          3.12669098411226     -1.92582342946780      1.46910278100886
  C           3.72557886867196     -4.02694389412186     -1.23924187735862
  C           3.40904383651701     -3.08442983156414     -2.11032697352321
  C           2.14256314662816     -2.28189300814475     -2.06601763885621
  O           1.53855428774790     -2.25063428531992     -0.76466279016936
  C           4.98993430558490     -4.81877502797438     -1.26963043616813
  H           3.07017635048313     -4.28013711667431     -0.41810398485684
  H           4.07012044638055     -2.84546360643862     -2.93080119033029
  H           1.38596013171137     -2.73739166192367     -2.71453609882594
  H           2.33413057168272     -1.26217459576880     -2.41715998306159
  F           1.39648063604849      1.09449732842419     -2.01172305405750
  H           0.08357287552564      1.37169954466997     -0.54224368866381
  H           0.03005593879918     -0.21417831388329     -1.38964161561298
  F           5.76342041362275     -4.51876159020406     -2.36208321857717
  H           4.77502113634748     -5.89343403781234     -1.31711842120715
  H           5.59771991970724     -4.61032604544349     -0.37998003920120
