20
Coordinates from ORCA-job NEB_product E -37.158459452700
  C           2.83275342619995     -1.34819892233800     -0.22664630284838
  C           1.39913357252280     -1.31392902451343      0.19997801080184
  C           3.19793614591616     -0.03676407477192     -0.93485266784644
  H           3.46004762140874     -1.42112386945929      0.67065232463823
  Br          0.96835304718513     -2.77158398112364      1.44337143585994
  C           3.05699845912958     -2.63034545126644     -1.07598697505972
  C           1.96839154842820     -2.78631059549793     -2.10408994256383
  C           1.13503544799137     -3.80841642788999     -2.13287128554703
  O           0.54390141485166     -0.56075797869931     -0.10382806481917
  C           4.43977315702320     -2.64710116548294     -1.74071349791042
  H           3.02827501160325     -3.48761199915194     -0.39522717397585
  H           1.90691218726218     -2.00214312220594     -2.84541961284157
  H           1.18079638148886     -4.60360931759266     -1.40623038042870
  H           0.36745401999183     -3.88920606573632     -2.88241696698361
  F           4.51203517436368      0.25602502940890     -0.68205884154629
  H           2.60590898355665      0.79564885439751     -0.54029300286812
  H           3.08123781261479     -0.09202403306907     -2.01893663365367
  F           4.47717367587953     -1.84796108315810     -2.85315117871986
  H           4.67304518799154     -3.66028980028770     -2.08276037985167
  H           5.21973772459089     -2.28589697156177     -1.06361886383565
