18
Coordinates from ORCA-job NEB E -33.953238530550
  C           0.69919942642955      0.93746370061462     -0.60796589858883
  C          -0.26829442414872      1.15962866496142      0.37923462677083
  I           0.18407028724855      1.47325926591075     -2.59547968154419
  H           1.73295032091720      1.17829483866853     -0.39626276300628
  C           0.16415679358409      1.29353874829941      1.82752129131979
  C           0.61979606133469     -1.02517514818245     -0.54011611040856
  C          -0.73069308589366     -1.28596878328977     -0.82167890014581
  C          -1.69956268863327     -0.84815578285300      0.10109144896657
  O          -1.49222047030235      0.84251052400991      0.14815186643150
  C           1.60820414508612     -1.42255912826609     -1.48492898939430
  H           0.96688327475285     -1.12999553604959      0.48574753878745
  H          -1.01797234033316     -1.41496828672155     -1.85577444396369
  H          -1.53051842813846     -1.05587013661830      1.15337096802871
  H          -2.73787262845415     -0.92330342416112     -0.19034648591520
  F           1.51505185670705      1.12957261021279      1.97891210374136
  H          -0.33257974780959      0.53909958638700      2.45162717399519
  H          -0.08990669299140      2.29093459126165      2.20448190175370
  N           2.40930834064465     -1.73830630418422     -2.23758564682825
