20
Coordinates from ORCA-job NEB E -37.598174796420
  C          -0.64985729054118      0.22068074796606      2.02728619369211
  C          -1.43607894278723     -0.70529456708939      1.46762510057213
  C           0.15955063574332      1.36871206012112      1.51418853981961
  H          -0.37593912897351      0.04490958096480      3.06126296166867
  Cl         -2.25210855089109     -1.71592874421781      2.62847659741961
  C           0.88662521264068     -0.67870957872457     -1.02408838153352
  C          -0.26386842250274     -0.17881659564953     -1.44326172116480
  C          -1.65923791907772     -0.52334206585992     -1.02348298806016
  O          -1.92930050710787     -1.03190621860109      0.28687722587752
  C           2.19645934762570     -0.12854380696469     -1.48264237552816
  H           0.94263845517188     -1.43511577682819     -0.25460330544898
  H          -0.27735228740890      0.60252070813677     -2.19193819215900
  H          -2.05217758807401     -1.33831305313372     -1.64926320622064
  H          -2.28968431345304      0.36447146967115     -1.16781326954223
  F           1.48061708980913      1.01615360847640      1.43387934115975
  F          -0.17178784758737      1.86850074873000      0.31154753125103
  H           0.11068386386916      2.19484753993085      2.24713332789712
  H           2.68118829880541      0.35604118140809     -0.63663210094852
  H           2.04424040864293      0.61701114158092     -2.26063327958593
  H           2.85538948609638     -0.91787837991716     -1.84391799916556
