20
Coordinates from ORCA-job NEB_reactant E -37.610748615820
  C           1.68191339539907     -0.18465032483011      0.00031520162614
  C           1.41834840412527     -1.33545481022962     -0.63313143395486
  C           1.68561674865714      1.20004634680648     -0.55781823821356
  H           1.88836752633509     -0.24172648139013      1.05502424408932
  Cl          1.38141188916685     -2.76817156461260      0.35059543208310
  C           3.61209296225450     -1.70265572279918     -4.24006263569053
  C           3.06399727424520     -1.09273279495135     -3.20220208287966
  C           1.58731604004260     -0.93073802169543     -3.01652834982599
  O           1.11982673864819     -1.66932563806642     -1.87546227394387
  C           5.07808140542017     -1.86676353543081     -4.44586939476455
  H           2.98176069869613     -2.11070951397272     -5.02023884690924
  H           3.68226263799625     -0.68293314727967     -2.41572570053676
  H           1.04002125721384     -1.37798546961296     -3.84886519876200
  H           1.31143499961257      0.12259216480605     -2.94135561557565
  F           2.73119457885044      1.43788442381715     -1.40356217295714
  F           0.56892861131992      1.48037567105141     -1.28600271415400
  H           1.74651457704465      1.95139653059278      0.24260888674466
  H           5.64029001316126     -1.43065327269430     -3.62462683372103
  H           5.38074070461022     -1.38673541552485     -5.37586913983144
  H           5.32767953720060     -2.92425942398371     -4.52582313282295
