21
Coordinates from ORCA-job NEB E -52.505861357040
  C           0.55608640248317     -0.60295650020190      0.72854022001500
  C          -0.91479521099262     -0.81088682895732      0.63338136354183
  O           0.99834919688586     -0.25864226866365      2.02816784508670
  H           1.11602403507440     -1.47983400982474      0.37716007688356
  C          -1.41984644015200     -1.87302308328825     -0.30303091248986
  C           0.89871633004281      0.71355835564875     -0.12795555422109
  C          -0.34883480352292      1.49981932294613     -0.23091544348625
  C          -1.12675862615005      1.55844742864377      1.01742460077655
  O          -1.53617032972134      0.38884356334356      0.34358678066312
  C           1.58350554693264      0.48585958410797     -1.46303454051581
  H           1.61309114719544      1.22436039908298      0.53200014374950
  H          -0.69391302892019      1.96766988581319     -1.13564151873636
  H          -1.93921881774225      2.27483310371183      1.08096800531669
  H          -0.59088718917656      1.39681347568015      1.94925559838436
  H           0.87564551088565     -1.01567415793676      2.61087471456868
  F          -2.16128961211524     -1.39633522758462     -1.31995537442378
  F          -0.45387013658695     -2.64351859874190     -0.84246055474302
  F          -2.22737399306070     -2.74042322404236      0.34873567859519
  Br          2.17066641473600      2.23620108761925     -2.15705840989837
  Br          3.18012223796114     -0.61017360807288     -1.26532031751520
  Br          0.42075136594371     -0.31493869928323     -2.80472240155141
