21
Coordinates from ORCA-job NEB_product E -52.551922226910
  C           2.87981190107650      0.72821668676694     -1.93480778328001
  C           1.46044022402645      0.49190530641718     -2.46624398399521
  O           2.80534637440733      0.85240872764020     -0.53892876805694
  H           3.52379765752421     -0.12238970430944     -2.21288287451640
  C           1.22387467298122     -0.99467085530637     -2.87249863083754
  C           3.51293657136248      2.03991448805670     -2.45509173399923
  C           2.58567453320633      3.21414610092342     -2.30085261779689
  C           2.69818803975246      4.08591089693283     -1.31729067910539
  O           0.54357415715315      1.25257058674154     -2.38847379576030
  C           3.97733908682169      1.90183998534351     -3.89389057417433
  H           4.39492993764754      2.20728067829909     -1.82248961866643
  H           1.79871395663245      3.30479581713516     -3.03640455938305
  H           2.01338434572238      4.90925180524760     -1.22170709761763
  H           3.46621597745696      4.00297148822008     -0.56673595562203
  H           2.47170460530360      0.03927737948508     -0.14043795788116
  F           0.04146879886449     -1.20015850448247     -3.42875407452569
  F           2.16372016104766     -1.47002586334076     -3.69737819257680
  F           1.29279521896582     -1.74039210241238     -1.74892208910986
  Br          4.66875817062811      3.60294336814633     -4.53009845986869
  Br          5.40727906968178      0.58230235282970     -4.06974016023369
  Br          2.50814653973739      1.35610136166608     -5.07127039299274
