19
Coordinates from ORCA-job NEB E -41.206973436950
  C           0.52933985233161     -0.29234079107758     -0.87256023596581
  C          -0.47254796743842      0.64867453889136     -1.21612825381792
  C           0.18472210800090     -1.74309082794410     -0.92544937662835
  H           1.52388150522301     -0.12123782032113     -1.28582616242832
  O          -0.10849003014315      1.83506153667656     -1.76643435493341
  C           0.70709056261425      0.41567305063501      1.03246371500666
  C          -0.59264466825566      0.33242854553029      1.54849418696092
  C          -1.58818085024084      1.13184305505232      0.96531205371911
  O          -1.62353654532183      0.58548481669862     -0.70179333282032
  C           1.74984952029436     -0.31403078569772      1.66366539373955
  H           1.04825033291064      1.39034233417690      0.68635844943703
  H          -0.87313128725482     -0.53775349606986      2.12193944022314
  H          -1.35620604201928      2.16367367894072      0.72764663939716
  H          -2.61377181515067      0.96082714215370      1.25766163162310
  Br         -0.04333584798162     -2.20346381694631     -2.87617572155840
  Br          1.63053848978681     -2.89056532724115     -0.28553479775068
  Br         -1.45105737081289     -2.28827886808391     -0.06251578314811
  H           0.75197508907068      1.80057202896283     -2.20161019662765
  N           2.59725496438692     -0.87381899433657      2.19048670557230
