19
Coordinates from ORCA-job NEB_reactant E -41.245707323700
  C           1.50820497161860     -0.11497599648216     -0.06489531783928
  C           1.34131564029567      1.15568412838471      0.33315348485865
  C           2.08697573528885     -1.20514009023314      0.72653992633983
  H           1.18714841923022     -0.35594625866615     -1.06679047124264
  O           0.83660471673030      2.04848658965869     -0.53475577884929
  C           1.06594436737833      0.17844074237357      4.73980266255163
  C           1.50278551999178      1.07825638144470      3.86162391889939
  C           0.75855256986763      1.45214734717626      2.62252270540124
  O           1.68614808635516      1.65910296316694      1.54191732160681
  C           1.77635137743886     -0.12489339775728      5.91871612037052
  H           0.14129140811226     -0.36681192768684      4.59868645130277
  H           2.43751164656025      1.59978511774473      4.01105995929321
  H           0.23328198709064      2.40442273959036      2.79120699768268
  H           0.01720046061836      0.69219308733271      2.35609099190276
  Br          0.71221782231347     -2.08972280888282      1.89185196709352
  Br          2.77388995081787     -2.60317963651427     -0.45029640545681
  Br          3.55142275214164     -0.65560667970382      1.89644260456050
  H           0.89040276779203      2.93849658194409     -0.15915248413342
  N           2.33804980035810     -0.37573888289027      6.88547534565794
