19
Coordinates from ORCA-job NEB_product E -41.268344940720
  C           1.50438143085470      0.55701186755583      1.64098213875064
  C           1.60176020821042      1.95860460307051      1.01747065700297
  C           2.44055739874375     -0.44433083882968      0.97941308430265
  H           0.47618060340242      0.22184544461124      1.43453584769236
  O           2.02725285171181      1.93746256904997     -0.23574933651382
  C           1.61488055713595      0.68321451134812      3.18340728101054
  C           0.77816489326271     -0.34216547942898      3.92259998295993
  C          -0.53438920908092     -0.41372120320024      3.81054884086565
  O           1.28528325197444      2.95430146677098      1.60346759721125
  C           2.97837507080069      0.63897042344276      3.66269445626619
  H           1.22851117288780      1.68645376925593      3.42280729965225
  H           1.31764368198935     -1.01550234487852      4.57257890261701
  H          -1.10059941904568      0.25745854095358      3.18355428942925
  H          -1.10085730812802     -1.15113915020554      4.34999994192362
  Br          1.74238345701408     -0.92767419620549     -0.78653540160855
  Br          4.25845810175683      0.21709196851595      0.74369423394839
  Br          2.54136243973496     -2.11174973007661      1.98815237522745
  H           2.07112725502744      2.82808935748901     -0.62073357494575
  N           4.03452356174727      0.59597842076118      4.09521138420794
