20
Coordinates from ORCA-job P E -33.610609988400
  C          -1.22280228165352      0.50928942755124     -2.29815313131708
  C          -0.39885233916072     -1.67070780156440     -0.45530356311417
  C          -1.24336368074557     -1.88609734663355     -1.67036584895938
  C          -1.62186418651056     -0.92523966512809     -2.49480952901126
  C          -0.86388323679271      0.77094548882552     -0.83439707528102
  C           0.17581743444880     -0.25475947742737     -0.37033932567865
  H          -1.54348573148371     -2.90820020749891     -1.85179865176739
  H          -2.21510238030906     -1.13868477134285     -3.37158917649227
  C          -2.34428445679952      1.44141327876820     -2.74317031226069
  H          -0.99357156092274     -1.88051538588848      0.43807977116647
  H          -0.35189446042362      0.72433657784050     -2.93161400525860
  H           0.43656098555646     -2.37364282176573     -0.46902846339954
  H          -1.75554174570477      0.67285450432245     -0.21212355631743
  H           0.44465883471208     -0.03868515372556      0.67824636501285
  H          -0.47487055640662      1.78540590208129     -0.71832068377035
  O           1.34055423331103     -0.21906649898555     -1.16605398164018
  F          -1.98535252918358      2.74195710213407     -2.58275293818037
  F          -2.61259364029354      1.29269888342530     -4.06292371706962
  H          -3.28423756538341      1.28617944470186     -2.19045378225370
  H           1.68224886374528      0.68158852031007     -1.18424839440760
