16
Coordinates from ORCA-job NEB E -37.275314851260
  C           0.55597106443270     -0.73772854688052     -0.75440835524906
  C          -0.70544705586329      0.06035695484723     -0.69420774744454
  Cl          0.22102043883085     -2.42522602381578     -0.22567073840940
  H           0.95054055676797     -0.78855584177740     -1.76996022332324
  N          -1.29098697994888      0.52422233589875     -1.89091383624032
  C           1.44472844703332      0.02198077739750      0.22353989964703
  C           0.51985599834205      0.72423695818648      1.11468229334471
  C          -0.79342654791510      0.13013071849642      1.50229683315553
  O          -1.55379186251519     -0.06010477805355      0.34249759334308
  Cl          2.61324530365913     -1.00853711188649      1.19022466691077
  H           2.09296190251487      0.71030962102682     -0.31983087216602
  H           0.95971524364283      1.41719146980669      1.81970946853834
  H          -1.37536288962747      0.78708523680111      2.15368880829217
  H          -0.62666335515660     -0.81889317264853      2.03748294753376
  O          -2.42694683750477      0.95367908105017     -1.83684197411997
  O          -0.58541342669243      0.50985232155110     -2.89228876381285
