16
Coordinates from ORCA-job NEB_product E -37.314581241290
  C           3.10315956423846      0.95116442903644      0.17567143650400
  C           1.64917642807096      1.13258117664398     -0.13238948061549
  Cl          3.36659165907908     -0.74576292258029      0.66757810371620
  H           3.71113596276062      1.14143121584578     -0.71373439627567
  N           1.37870555011523      2.42890257531747     -0.95265387933826
  C           3.51639209730896      1.92983058684879      1.29544290124731
  C           2.67869371625428      1.78335524056806      2.52147673649351
  C           2.04092636338057      2.79327046364538      3.08388802409717
  O           0.71139427505915      0.48158624391316      0.16396000710321
  Cl          5.23515806670596      1.61202238529730      1.71004338262463
  H           3.48358740358565      2.94972052896402      0.90116996290928
  H           2.63756776939647      0.78727311476015      2.93708578113239
  H           2.08598952984286      3.79223637020719      2.68143995109360
  H           1.44929752203931      2.65978471628587      3.97194984707724
  O           0.23326074477909      2.62642831436746     -1.23750890929227
  O           2.33506334738336      3.11817556087924     -1.21421946847685
