16
Coordinates from ORCA-job NEB_reactant E -37.321473731510
  C           2.15801126888307      0.45192621731597     -0.07431407386457
  C           1.59634904419676      1.66105546723958      0.04834877335038
  Cl          2.75286972945966     -0.55479377067236      1.16890985742188
  H           2.26260118702769      0.04375427237394     -1.06999727044988
  N           1.17948337616699      2.32091321340392     -1.20024625400013
  C           4.04719555644439      2.77577860552490      1.75647652025849
  C           3.21368196754623      2.16272087528486      2.58024478372986
  C           1.72468727749549      2.13767802672880      2.38897977734175
  O           1.30518804475617      2.46482759625177      1.07623878680458
  Cl          5.74549936305577      2.78054325931532      1.99348635111851
  H           3.72928941634848      3.31844602704201      0.87908368273154
  H           3.57388858247931      1.64562262364525      3.45618591498331
  H           1.25756627419650      2.90737742852915      3.01340063184741
  H           1.32342127983609      1.16323289288250      2.68787368133395
  O           0.76853472449115      3.44712729955692     -1.10310670494242
  O           1.28493290761625      1.69078996557747     -2.22736445766465
