23
Coordinates from ORCA-job NEB_product E -33.067815742160
  C           2.71412227675190     -1.50982734270548      1.56868655619618
  C           1.71699544620846     -0.98931651639711      2.61155322559554
  N           2.81831034301989     -0.63232123522593      0.42982957552373
  H           3.69092308375719     -1.50272339709164      2.07524872236254
  C           1.35688375186336      0.46489369164381      2.48104663024559
  C           2.36439474190539     -3.00512395426516      1.24812342319638
  C           1.09387595238984     -3.11094141081723      0.44740002062455
  C          -0.07191640760085     -3.42101681308102      0.98133777469387
  O           1.29170873661320     -1.71122043231954      3.47696311769103
  C           3.45998911536648     -3.59414421527456      0.52305901567047
  H           2.24395733053947     -3.51740409079271      2.20896673463431
  H           1.18530516683412     -2.90829938223933     -0.61280394554432
  H          -0.17505736220994     -3.62768860018797      2.03352564735220
  H          -0.96950411221665     -3.47087067704686      0.38882093029354
  H           3.58930671301391     -0.90773567849437     -0.16806801810094
  H           1.96859339349276     -0.64556233816973     -0.12318308230821
  C           0.62027863486677      0.98891225809238      3.70600074276955
  H           0.72856462390174      0.56166242038628      1.59161131247137
  H           2.26887817586119      1.02958088445029      2.28309141232840
  H          -0.27161494423219      0.39540581844203      3.88970229624417
  H           0.33055873740619      2.02597582393963      3.55963364960911
  H           1.25548733843516      0.92273855507708      4.58555026604852
  N           4.33275926403261     -4.01497336792287     -0.08509600759757
