23
Coordinates from ORCA-job NEB_reactant E -33.057005520170
  C           1.74529473794917     -0.22127275761719      0.44954189428168
  C           1.82062531797304     -0.14205172762651      1.78003903633178
  N           2.01100454218440     -1.34985922616671     -0.32369315327876
  H           1.37336659095960      0.62888822613548     -0.10181573856672
  C           1.43607971349316      1.08982796583982      2.55273775216464
  C           1.79954790560901     -4.49445152129228      1.23699609741337
  C           2.30468657482818     -3.52523384942406      1.99985872752118
  C           1.50747513739987     -2.38522347693536      2.54896708982191
  O           2.26622720582922     -1.18796973263101      2.58616231991961
  C           2.58244628450707     -5.56127083702474      0.75766777056372
  H           0.75717809604505     -4.50807199701765      0.94564715883198
  H           3.35176097602859     -3.52646163638711      2.27499181286691
  H           1.24376698219659     -2.62705415298093      3.59152849781869
  H           0.58163600881351     -2.24595005208202      1.98029639816541
  H           2.64005171862455     -2.00600134726674      0.11989548415640
  H           2.29302046298145     -1.14050250281378     -1.26936616672668
  C           0.06621808145710      0.93076140096436      3.21570867604074
  H           1.42551034599221      1.95049568718811      1.88376065019017
  H           2.18867557990727      1.25843750217117      3.32557790327233
  H          -0.70211103369626      0.76431067988568      2.46346410354733
  H          -0.18814385763488      1.82489536594775      3.77993739113967
  H           0.07331634904812      0.08438689493546      3.89860800385782
  N           3.21846627950398     -6.42702890580177      0.35568829066680
