18
Coordinates from ORCA-job NEB E -42.599559114520
  C           0.68426255463043      0.49369618765052      0.84085994003235
  C          -0.59116652670292     -0.12797111031894      0.87918705686430
  C           0.69099960774639      1.92265494345880      0.84689053309541
  H           1.45728813457010      0.07158492100243      1.47824374463238
  C          -0.72191497791051     -1.50418621468443      1.49849798240395
  C           1.23863809112042      0.15247417121495     -0.92171965617682
  C           0.17431957113563      0.65489265140093     -1.68663884828920
  C          -1.10189028953649      0.05974427392002     -1.52012227264194
  O          -1.50973905612075      0.25761608817863      0.06603797238114
  Cl          2.79103095962103      0.93684691079109     -1.07655857173837
  H           1.35820383875641     -0.92344988250819     -0.83503249348275
  H           0.23265031565220      1.67537530704036     -2.03598428758739
  H          -1.14888525584038     -1.02388625760744     -1.57329731253207
  H          -1.92802076818548      0.54605030824390     -2.02304284527572
  N           0.67713112837404      3.06474552644501      0.86792756399627
  Cl          0.10864659608345     -1.58772850585979      3.06249296427299
  Cl         -2.42855629751343     -1.91416549702525      1.71380238492840
  Cl          0.01700237411988     -2.75429382134261      0.41845614511708
