18
Coordinates from ORCA-job NEB_reactant E -42.636084819330
  C           2.08245530832744     -0.24409314723915     -0.24532044542706
  C           1.50793138062850     -1.34180342220094     -0.76425799293000
  C           2.24948628911738      1.00167980120501     -0.86816135194381
  H           2.46650028013425     -0.28077160280370      0.76366957755470
  C           1.42328941599175     -2.63717386193063      0.01359787486439
  C           3.41403610161258     -1.04731328299476     -3.33755204771659
  C           2.39238983588526     -0.21810733685581     -3.47201834008275
  C           1.01457240273545     -0.50395498844424     -2.94808286147678
  O           0.96535517934399     -1.53377771465522     -1.97520581895284
  Cl          4.97566346580532     -0.69251729470771     -3.94495019395111
  H           3.35016681729947     -2.00211941034617     -2.83756761924309
  H           2.50062878863581      0.72769375266507     -3.97977073833041
  H           0.37768357149537     -0.87494524661222     -3.75901264640332
  H           0.56872056743648      0.41532049450560     -2.55120511730540
  N           2.41227117817745      2.05324439729613     -1.29920154747036
  Cl          1.78182264737277     -2.46567957272621      1.73219084194588
  Cl         -0.20560092162321     -3.33324430407905     -0.15451826624989
  Cl          2.60482769162393     -3.77853726007601     -0.69773330688154
