19
Coordinates from ORCA-job NEB_reactant E -43.232133596190
  C           1.96794630735600      0.42042052096622     -0.09918421879334
  C           1.70817887914898      0.03377234132300     -1.36262502263632
  C           1.90082936994835      1.70977363375167      0.42727456728102
  H           2.23785141626569     -0.35605904633580      0.60090260199927
  O           1.77990435856397     -1.26679382679651     -1.67814452012218
  C           3.20497459346485      3.75042064467572     -1.76499932730525
  C           2.76712017764772      2.71651817958708     -2.46233994282592
  C           1.36843443368503      2.18334225055680     -2.39431511042161
  O           1.34592066497095      0.76674110277841     -2.43900925351190
  C           4.60166212255702      4.27248195418063     -1.89515723346253
  H           2.59938128773736      4.28439398963773     -1.04866364409050
  H           3.42033125580094      2.19604021330281     -3.15139663641921
  H           0.82789254223941      2.48580605706895     -3.29832728616981
  H           0.83718665444777      2.55958274044759     -1.51672974182179
  N           1.84650239612086      2.75024180929382      0.91422482235141
  H           1.56111014905842     -1.38199020209638     -2.61347324933033
  F           5.34178318758416      3.59195808885703     -2.78440595328024
  F           4.61662272888866      5.55622784305335     -2.29612351064586
  F           5.26916747451386      4.23142170574785     -0.73370734079491
