22
Coordinates from ORCA-job NEB E -37.439154870400
  C          -0.36884678743819      0.83489406631043      0.74735632130234
  C          -1.65852295023083      0.78125878196452      0.23322939740629
  C           0.52479333325021      1.96166389034383      0.31676271147929
  H          -0.21005384467014      0.50185671418724      1.76740362444422
  O          -2.61516543425235      0.06651371991794      0.89162373691149
  C           0.41724859080250     -0.81979697823541     -0.42639418875699
  C          -0.60933181311994     -1.08964836835709     -1.32480233080649
  C          -1.09984909859356     -0.06008209534214     -2.12530028210649
  O          -1.91901073153527      1.08690372047661     -0.96579445054461
  O           0.73358630833553     -1.75515078935773      0.49479660283310
  H           1.22866488465855     -0.17164092559115     -0.73823812754664
  H          -1.26338238411144     -1.91534605274264     -1.08123224934717
  H          -1.94164469769282     -0.25860131674775     -2.76896414349692
  H          -0.40623283301649      0.67584958116196     -2.50561584899462
  F           1.85787649752197      1.65600025095498      0.49728475466755
  H           0.34326643388865      2.85538788776795      0.92790775511108
  H           0.38378162142230      2.20447286573198     -0.73932904739072
  H          -2.30028125247007     -0.23566263069511      1.75164607325417
  C           1.98394999930887     -1.59977632183015      1.13324210648403
  H           2.80068197257861     -1.61766737063026      0.40599423977936
  H           2.08614491476722     -2.44017826596157      1.81666064870092
  H           2.03232727059669     -0.66125036332644      1.69176269661680
