22
Coordinates from ORCA-job NEB_reactant E -37.480262228330
  C           1.97336190249733     -0.15763983005861     -0.00027689627909
  C           2.77244645659633     -0.97952085408344     -0.69075079615516
  C           0.58967877223585      0.18422605312978     -0.42904004037017
  H           2.35601634841368      0.34778461843572      0.87210579320095
  O           4.04396839181791     -1.27111303627645     -0.30946247649439
  C           4.18122554843738     -4.34814400394990     -0.91201458677735
  C           3.12131743415521     -3.87246933095190     -1.55479726493057
  C           3.17503721136570     -2.61644062086299     -2.36769965524089
  O           2.35321788179953     -1.58717477983316     -1.81148985738739
  O           4.27416955947232     -5.45097460318280     -0.14037941922513
  H           5.14384716514596     -3.85806063764045     -0.97246405012112
  H           2.14906148607009     -4.33547451794653     -1.48824693393438
  H           2.74330846709805     -2.77731657289316     -3.35942198085801
  H           4.20528003238231     -2.26319610168581     -2.46727872874487
  F           0.51502273328520      1.49822238658708     -0.87016552245542
  H          -0.12312323401373      0.11607451118348      0.40079003282999
  H           0.27257225072091     -0.44169256576404     -1.26586586683616
  H           4.27135207862259     -0.75918552099357      0.47423120348624
  C           3.10470309524850     -6.21245147689898      0.05490475282920
  H           3.38942681195269     -7.04224707196440      0.69916513061080
  H           2.72249670099101     -6.59984413995176     -0.89450179119098
  H           2.32401290570519     -5.62086190439811      0.54285895404390
