17
Coordinates from ORCA-job NEB E -37.623110138580
  C           0.94344295553872      0.33842420532502     -0.55222526468290
  C          -0.09734730131947      1.25490884285218     -0.65852399875746
  C           0.99529615315225     -0.85712842689694     -1.46288400563996
  H           1.94003384658467      0.75039976247226     -0.41809984632681
  Br          0.33235684361806      3.05238976337239     -0.01236789763450
  C           0.45801983219052     -0.36277123033770      1.27956100973063
  C          -0.87862824457638     -0.66656205147944      1.13597374626044
  C          -1.78692282265072      0.39963629564057      0.82091354857192
  O          -1.33240480930836      0.93950787372829     -0.60961103936301
  H           1.16423323183789     -1.16477009852054      1.42584807315382
  H           0.73432160700511      0.56451598488690      1.76393745363820
  H          -1.17441663279814     -1.67493411910210      0.89227841562730
  H          -1.69653593786031      1.29772403971082      1.43172232267988
  H          -2.81973954572829      0.12031248208585      0.64806860388754
  Cl         -0.55575625874308     -1.63415853824271     -1.77700725749213
  Cl          1.63558231368551     -0.27798522615523     -3.04770579277384
  Cl          2.13846476937203     -2.07950955933964     -0.85987807087911
