17
Coordinates from ORCA-job NEB_product E -37.669761520600
  C           1.65616146430655     -0.58678727041861      1.34402317543368
  C           0.56904224040957      0.30383512560655      0.81175663593883
  C           1.87418468314488     -1.79434132228928      0.42973005589234
  H           2.59863062835696     -0.02737829602613      1.34464764858080
  Br          0.69117269351144      2.08206290759082      1.61893144634734
  C           1.31169171274889     -0.94650435753962      2.81406151015133
  C          -0.15394631545713     -1.17395889246457      3.04815464510237
  C          -0.90252085954337     -0.37114872769410      3.78093995591695
  O          -0.29524862582123      0.08180424604906      0.04555646962388
  H           1.87637076428619     -1.84062018480819      3.08381103050122
  H           1.64731912351719     -0.12335116299095      3.44731895455416
  H          -0.58217378019502     -2.04977428770968      2.58425636001057
  H          -0.50030927222659      0.50871611755499      4.25698398575562
  H          -1.94978680728027     -0.56157073556651      3.93757705262540
  Cl          0.46400756400018     -2.84912702790362      0.29381742423946
  Cl          2.30197127278766     -1.20861722401648     -1.20824508475060
  Cl          3.24723351345409     -2.75383890737368      1.03707873407662
