27
Coordinates from ORCA-job P E -37.323811816950
  C          -1.47078398316230      0.49566968448317     -2.01986968544986
  C          -0.45878123845287     -1.48438537041273     -0.38614029698754
  C          -1.90465673125703     -1.53763746142840     -0.76443511557448
  C          -2.39007345870942     -0.59848683585919     -1.56066283098028
  C          -0.72660792463085      1.05415136321343     -0.78891463540291
  C          -0.06224591956853     -0.05519558271817      0.05828807934128
  H          -2.50636662355123     -2.34995161307340     -0.38806811432789
  H          -3.41808746751696     -0.58207145176016     -1.88603026903876
  C          -2.18750362252310      1.61063677730867     -2.73286904655388
  H          -0.22596306552015     -2.19236213274187      0.40984894372955
  H          -0.72153563570352      0.06316814087456     -2.69633962228408
  H           0.14628468083323     -1.75492642173186     -1.25894585377748
  H          -1.44615188615083      1.59491369216873     -0.17199373571027
  H          -0.35114372209621      0.07375768540652      1.10738092063368
  H           0.02549078993568      1.77261564329380     -1.12289289255002
  C           1.37320950748731      0.06862079422442     -0.01472335445829
  C          -3.32044476974874      2.19062152696428     -2.17427464575488
  C          -3.97407491042420      3.22433673152235     -2.81973910995517
  C          -3.50116371274452      3.69556578603883     -4.03273913162638
  C          -2.37179499574376      3.12706076259359     -4.59522371713451
  C          -1.71995339220631      2.09183381478037     -3.94814541787815
  H          -3.69628990600150      1.82804148933412     -1.22771334656766
  H          -4.85488495562157      3.66415332625097     -2.37484216382818
  H          -4.01136688244859      4.50276513421209     -4.53709834901742
  H          -1.99688031747342      3.48978350719129     -5.54109079147789
  H          -0.83862338732070      1.65168060938423     -4.39353757364557
  N           2.50909353032012      0.16673040048037     -0.10315824372298
