27
Coordinates from ORCA-job R E -37.238384688960
  C          -1.48709473201455     -0.50432908705017     -3.08569259544829
  C          -0.02672380118857     -3.01476709411608     -2.27064148670359
  C          -1.33954960167444     -2.80976287701891     -2.20579614862791
  C          -2.00615297831957     -1.54033330118930     -2.41055055435020
  C          -1.43904560587508      1.76632635226202     -0.25155999119831
  C          -0.66883895563135      0.68455556772730     -0.25700555068482
  H          -1.99202696096221     -3.63677314724546     -1.95144409112044
  H          -2.99798670758901     -1.46802224204091     -1.98336360288084
  C          -2.09013387319282      0.80147078747652     -3.27221342750239
  H           0.39885413118027     -3.98907975364083     -2.10270508180500
  H          -0.50856101136425     -0.61723422628936     -3.53296309406257
  H           0.66860422049569     -2.21801349098662     -2.47309896947844
  H          -2.34825287487191      1.80644315704540      0.32331277709533
  H          -0.91148179619382     -0.20566378360793      0.30856226259146
  H          -1.18824830688671      2.64276918993523     -0.82572929495816
  C           0.52293579219705      0.60913277550931     -1.00640623223223
  C          -3.38610763966776      1.11830155685574     -2.85710306226022
  C          -3.89322193633716      2.39112313299972     -3.03026381926491
  C          -3.12064266669437      3.37971435974564     -3.61848862083916
  C          -1.83462329651410      3.08196125945505     -4.03961294057244
  C          -1.32744804253455      1.80871039508540     -3.87154790830852
  H          -4.00690400598109      0.36142966093789     -2.40218819787753
  H          -4.89884952745478      2.61637115674235     -2.70495980250072
  H          -3.52010572008257      4.37450111541598     -3.75010829886950
  H          -1.22628512134923      3.84662412050605     -4.50052900072920
  H          -0.32078067646550      1.58380891006915     -4.19337819199699
  N           1.49725169497239      0.54035550541681     -1.60707507541439
