27
Coordinates from ORCA-job TS E -37.227414538380
  C           0.07283234847068     -0.49008589992329     -0.45251930426972
  C           1.54467622183892     -2.76342236461833      0.55281909897579
  C           0.20512407077154     -2.78804377125325      0.34708346525300
  C          -0.51997510183788     -1.69354952515128     -0.16650325582954
  C           0.72009441842033      0.04321875725654      1.60312287813957
  C           1.49502068235505     -0.95163967321003      2.12911323601810
  H          -0.36996986238791     -3.61506477772469      0.74334670388471
  H          -1.59816452039443     -1.76808698185329     -0.16275897589897
  C          -0.66139664719898      0.69783940683239     -0.87687578765862
  H           2.03665783633603     -3.57087516156870      1.06969179876855
  H           1.12087635258244     -0.48576817724306     -0.71788087697842
  H           2.19623287115260     -2.10424987738700      0.00810180378045
  H          -0.30081461576713      0.15283416198750      1.92543808674359
  H           1.08529634596124     -1.68434916345086      2.80877754205310
  H           1.18454151152300      0.92010450021996      1.18431395471015
  C           2.89786812351697     -0.89823539882293      2.05226530889252
  C          -1.98758731239789      0.92920158790477     -0.50933553438670
  C          -2.64675682012671      2.06944236159664     -0.92615729271000
  C          -1.99565464202412      3.00535766074325     -1.71313835959264
  C          -0.67516835068568      2.79602829724645     -2.07543149660795
  C          -0.01360689394896      1.65832012079624     -1.65587285931771
  H          -2.50472881357686      0.21717933628362      0.11666624717753
  H          -3.67359072132383      2.23269533145324     -0.63267990043772
  H          -2.51308783686941      3.89599873810760     -2.03702926582403
  H          -0.15937561429078      3.52447755450619     -2.68374920122253
  H           1.01730168350821      1.50076427186043     -1.94098714642426
  N           4.04335528639357     -0.83009131458810      2.01017913276175
