17
Coordinates from ORCA-job NEB_product E -25.539305794930
  C           3.16202001611973     -0.67497651166222     -1.38499643559238
  C           1.65073513975454     -0.65462560693255     -1.20569069711395
  Br          3.98940870977216      0.35453145441112      0.06412459536574
  H           3.55262283345731     -1.69078483408075     -1.29056569541163
  C           0.95081384764055     -1.81954189081866     -1.85433440912651
  C           3.54954345988618     -0.08023473482136     -2.74566404270600
  C           2.92826957996457      1.26626121839088     -2.95800354003380
  C           2.07572271050203      1.54256316084190     -3.92517118913253
  O           1.08231800805601      0.21193785487712     -0.60387971132205
  H           4.63942098283102      0.00660374660339     -2.78697752121600
  H           3.23291259731395     -0.76942163438179     -3.53310089305245
  H           3.21332094110512      2.02504147819213     -2.24233298729149
  H           1.77254316868985      0.80304118679253     -4.64956225062945
  H           1.64882828143302      2.52315773844172     -4.04022918280947
  H           1.34349511399063     -2.01038366994157     -2.84944509274042
  H          -0.11691062376418     -1.62462810163444     -1.90513548403626
  H           1.11693523324750     -2.70804085427744     -1.24603546315137
