17
Coordinates from ORCA-job NEB_reactant E -25.523478439360
  C           2.25270572137193     -0.03389784992464     -0.57953702062980
  C           1.52166856239169     -0.68913909671381     -1.47954587562872
  Br          3.17187977793696      1.62733518187160     -0.71254061398611
  H           2.36201664032122     -0.44410947875383      0.40918021112555
  C           0.85587260809311     -1.97904914030730     -1.07174020830502
  C           4.30818397613660      1.04885332699812     -3.93957748054207
  C           3.32446937077988      0.18246897338365     -3.79788320373873
  C           1.89674973392948      0.55877351736235     -3.52883335319290
  O           1.20973184640927     -0.42195089344268     -2.76728323166290
  H           5.31374770501249      0.73279455886491     -4.15530353527943
  H           4.14857447619602      2.10945307388451     -3.84096780780102
  H           3.49540402787750     -0.88225404814059     -3.89044402880740
  H           1.34319548158058      0.57254687221723     -4.47597054729414
  H           1.82073320694750      1.55188301807873     -3.07699778395729
  H           1.29933821378753     -2.80667187522216     -1.62279296029956
  H          -0.19840684728491     -1.93088326542010     -1.33531263862092
  H           0.95563549851315     -2.16205287473600     -0.00754992137954
