17
Coordinates from ORCA-job NEB E -36.676471321660
  C           1.03398923457767      0.34047134876711     -0.72446026125615
  C          -0.40659897280047      0.29895022997568     -0.96582388562037
  H           1.57276038431541     -0.35557606666314     -1.36368197736307
  H           1.46713529171164      1.33485932942578     -0.80430136268581
  C          -1.21194145496455      1.49436101310708     -0.92715211115161
  C           1.26830101921453     -0.20783363770100      0.79120846322328
  C           0.58774134889565     -1.47464790885487      0.92149713306643
  C          -0.80209164413595     -1.50040365791439      0.62241132483078
  O          -1.02350645519515     -0.83310545142420     -0.80516429097134
  Cl          3.01788594789038     -0.31149545844927      1.06809106478550
  H           0.87228073174775      0.58444048153736      1.43361033141930
  H           1.16754884387231     -2.38240988083472      0.87523208213594
  H          -1.42418221939643     -0.83179495594617      1.22020916496499
  H          -1.24738954018442     -2.48437002756446      0.52283517527251
  Br         -0.48958172029563      3.04926962011579     -1.74802731922827
  Br         -3.02606746786264      1.20764486495775     -1.42465594822657
  Br         -1.35628332739009      2.07164015746566      1.30817241680443
