17
Coordinates from ORCA-job NEB_reactant E -36.700679635250
  C           1.63771894413805     -0.00416680095948      0.23278870513555
  C           1.73118489922567      0.83653629742371      1.25337668091211
  H           1.97634001211793     -1.02034404883076      0.30629305195083
  H           1.22060925194662      0.29329691767857     -0.70993499287685
  C           1.27424514019020      2.26268976668040      1.24159657851109
  C           2.74952026232388     -1.45995154388631      5.14277714489009
  C           3.22975461856127     -0.67707403824022      4.19123924415770
  C           2.72123775003679     -0.70388799585506      2.78449964477061
  O           2.23121196510667      0.59319399030356      2.48990589073865
  Cl          3.33774246285267     -1.43560585368806      6.74983064674896
  H           1.96689836375832     -2.18544919437108      4.97621845968884
  H           4.00193949263814      0.04885555925977      4.39603664801171
  H           1.91845133535779     -1.44281839797464      2.67031228475454
  H           3.54017461413992     -0.94846030145489      2.09273058595236
  Br          0.60628133975448      2.88635659257960     -0.45241538600336
  Br         -0.14541792018428      2.47023180157704      2.57889588181390
  Br          2.76980746803587      3.40599724975784      1.76864893084327
