22
Coordinates from ORCA-job NEB E -50.466176101680
  C          -0.02649464318779      0.14043340133945     -1.00099267478913
  C          -1.26672431539573      0.51105698693674     -0.46375849656747
  N           0.03116960253616     -1.23078266663425     -1.51793954985075
  H           0.46526125297630      0.82615775335795     -1.68583627476930
  C          -1.78940359139666      1.89308339513158     -0.60597492310025
  C           1.08284048358712     -0.04997298137881      0.57199668805591
  C           0.33295401987756     -0.98149519261254      1.27900089803084
  C          -1.04101746247060     -0.65705282877923      1.63686050787601
  O          -1.85889280959409     -0.23595237848317      0.44488262722579
  C           2.48105309348804     -0.40584800396787      0.12614715681864
  H           1.00699100133684      1.00010010532973      0.83984419695937
  H           0.64954391145328     -2.01162032418816      1.31340341269906
  H          -1.11611424600848      0.20977101766595      2.30039742225873
  H          -1.59347202801356     -1.50151104720647      2.04042401554885
  O           0.47500287291939     -1.33623627401769     -2.63420674595893
  O          -0.42020823333020     -2.10833471886659     -0.82995878736328
  Br         -1.59832201308773      2.61347201607904     -2.39377481027190
  Br         -3.63456872797450      1.98639247928989     -0.04577675105400
  Br         -0.73150278983842      3.12667781576997      0.64589217595701
  F           2.56851540718343     -1.72285001146527     -0.23070232625843
  H           3.18643618575523     -0.24968315038171      0.95092260055413
  H           2.79695302918441      0.18419460708146     -0.74085036200089
