22
Coordinates from ORCA-job NEB_reactant E -50.493888940410
  C           2.14843821690556      0.37424635048243      0.38774734444011
  C           1.58815110911627      0.93881198380678      1.47543507051494
  N           2.56892687428134     -0.97601818199449      0.23319684730482
  H           2.36073672863468      0.97837319079230     -0.48301872892712
  C           1.15315837883837      2.38728371559887      1.36734176070930
  C           4.28661243574942      0.09502263342759      2.82903670805497
  C           3.41432299543988     -0.85229425791395      3.13124294299228
  C           1.92699888858111     -0.70963379651833      3.22300836022242
  O           1.39594417768484      0.50735091840294      2.70885239172272
  C           5.76128512172827     -0.13120149344840      2.74486362888290
  H           4.00027455986902      1.11540606622020      2.61474297499094
  H           3.76132610933539     -1.85312892513864      3.34519734124221
  H           1.61235068244477     -0.69966287506733      4.27191400719904
  H           1.45559519131119     -1.56477153239975      2.72075075690710
  O           3.57112122263648     -1.15679388643417     -0.42032101192728
  O           1.87989085536883     -1.85134002526641      0.71969844520081
  Br          0.12810692317881      2.71999373978705     -0.25096452735021
  Br          0.08003001983393      2.90155196849409      2.88753677804602
  Br          2.75293277590959      3.53044195913381      1.33382916899890
  F           6.11554012238811     -1.37159904681576      3.20044576568032
  H           6.30204015371117      0.60328392107796      3.35334041505938
  H           6.10131645705297     -0.06202242622681      1.70322356003544
