22
Coordinates from ORCA-job NEB_product E -50.492667723750
  C           3.06997225968368      0.50307481211750      1.20726084264940
  C           1.61613734299739      0.79743660512093      1.47523888793779
  N           3.12520807979671     -0.63371880080372      0.20895733038704
  H           3.59428125651741      1.34161310778061      0.73657756932231
  C           1.19099682934224      2.24404415708411      1.23170794554999
  C           3.77422811686087      0.12105023253062      2.54007379648657
  C           3.06981486954503     -0.99520578233497      3.25758118270715
  C           2.41328390589948     -0.81843598872091      4.38878517242046
  O           0.82140787884996     -0.01087167070020      1.84880444145985
  C           5.24223748928343     -0.22815836964073      2.26834130197465
  H           3.77167278361143      1.01856059160534      3.16973835079262
  H           3.12621203592725     -1.96635845229591      2.78925932265172
  H           2.34353663508111      0.14567372516996      4.86823094584379
  H           1.91921378564494     -1.63509543154342      4.88325324558904
  O           3.69166928571356     -0.36967790860990     -0.81645444395170
  O           2.57680011738794     -1.65487657100673      0.49637218061711
  Br          1.40119907320216      2.62334474683767     -0.68163648332936
  Br         -0.64790730933695      2.48367531116122      1.76363449432159
  Br          2.32520615161310      3.44497452034261      2.26308882525004
  F           5.34022353644978     -1.34203171544758      1.48139555175374
  H           5.75353603541312     -0.45313686904660      3.20889198949285
  H           5.75926984051635      0.58121975040009      1.74129755007335
