19
Coordinates from ORCA-job R E -36.986957825650
  C          -1.36468306326572     -0.08076119963276     -2.84812430398383
  C           0.19402519660191     -2.61522858634693     -2.44391309706056
  C          -1.01501911404018     -2.35006218184853     -1.96203129010954
  C          -1.69764298672104     -1.06926184313776     -2.02836502591843
  C          -0.65948772613883      2.04726105496148      0.16097311965056
  C          -0.44465706772861      0.81683491064082      0.58832135112767
  H          -1.56465270933099     -3.12656113544645     -1.44645449604516
  H          -2.54471998422121     -0.95372989701948     -1.36488629476182
  I          -2.39156311920837      1.75038444000497     -2.89915621119724
  H           0.63135398855149     -3.59304556237438     -2.34454983706902
  H          -0.55485290315131     -0.12844048487532     -3.55318639545709
  H           0.80060882955586     -1.86961404307836     -2.92828942792321
  H          -1.56068966407177      2.57779796997438      0.41094665084750
  H          -1.13443841154613      0.27071128309713      1.21258195996202
  H           0.05516107422396      2.56496050403178     -0.45735066937148
  C           0.81604949148646      0.07560728432131      0.26403930964764
  F           0.69199659085225     -1.24581904916131      0.45853496011523
  F           1.21275913354323      0.24209409289975     -1.00931236917753
  F           1.85289244460903      0.47126244298966      1.02797206672428
