19
Coordinates from ORCA-job TS E -36.974407140300
  C          -0.98410698983619      0.71412711981297     -1.47128019519660
  C           0.35206834250210     -1.55245159679764     -0.34676082522875
  C          -0.97605640592250     -1.54929513931839     -0.61976726058104
  C          -1.63567118164333     -0.44485015177015     -1.20390846880569
  C          -0.37875541358860      1.21420083536601      0.68372967641789
  C           0.37559687822917      0.19744933813297      1.17537267360644
  H          -1.60206354901497     -2.33872113661339     -0.22804544953893
  H          -2.71486865448064     -0.47488850800753     -1.25433148026310
  I          -2.02469087384768      2.39997973128396     -2.18708540772116
  H           0.79265473141189     -2.36969850986400      0.19986757483173
  H           0.06919775073085      0.76913503596111     -1.67675107792200
  H           1.04170527279944     -0.94924868465632     -0.90902325381360
  H          -1.41376896998494      1.30018434777121      0.95926077437286
  H          -0.00811276843155     -0.52073221696065      1.87977310713019
  H           0.09263823385489      2.09172829201644      0.27522350475142
  C           1.86582649006548      0.33201805690162      1.17298917225148
  F           2.50941823056950     -0.82143161263904      1.40480164399242
  F           2.34959828268549      0.81844052468469      0.01560845518607
  F           2.28939059390159      1.18405427469611      2.13032683653038
