26
Coordinates from ORCA-job NEB E -35.408200181680
  C          -0.50961458411625     -1.73522845663413      0.52244731041661
  C          -1.77376351239520     -1.73165637022681      0.11872743123145
  C          -0.11587510133832     -1.01830205639231      1.80643835866317
  H          -0.01599583000585     -2.69765338248753      0.43340825470118
  Cl         -3.25596482928470     -2.81261220115000      1.18454873838277
  C          -0.16819872923714      1.22874574133971     -1.33829347212159
  C          -0.55967264503533      0.00563037501778     -1.67038163365407
  C          -1.99680745517383     -0.37243391980518     -1.80162315891218
  O          -2.50803690008148     -1.25515494330876     -0.76488883275430
  C           1.25198454113907      1.67487516430806     -1.23855778443552
  H          -0.90726098728024      1.99072179120752     -1.12305080437331
  H           0.16268245151810     -0.76480230788184     -1.89371629920609
  H          -2.18855326305401     -0.90371317767364     -2.73981626857276
  H          -2.64457112002103      0.50758967841726     -1.75221646843357
  C           1.39574806972438     -1.04089720673913      1.98176035420941
  H          -0.59669445401886     -1.49797228453758      2.66495669726035
  H          -0.47405466997870      0.01232944625767      1.75527529549545
  H           1.75002607685330     -2.06177903035889      2.10287391332891
  H           1.67926036865685     -0.47242431117857      2.86484149946068
  H           1.88897438725717     -0.60703074985309      1.11517570653500
  C           1.50184495432801      2.45790369048838      0.04912097717915
  H           1.47459298211243      2.32232014552107     -2.09263945436438
  H           1.91692376760046      0.81154998720683     -1.29141718898911
  H           0.87119467361789      3.34338583567573      0.08554162881981
  H           2.54054683692691      2.77368958883607      0.10393865110734
  H           1.28128497128640      1.84291895395139      0.91754654902559
