26
Coordinates from ORCA-job NEB_reactant E -35.495420122420
  C           1.28765043558232     -0.15683159179244      0.51067689290965
  C           1.15542966096865      0.14369591887680     -0.77524976921469
  C           2.41671995143629      0.34163960394685      1.35910041355398
  H           0.58136356166355     -0.82915179495755      0.96969860437239
  Cl         -0.20601942207477     -0.49771991513408     -1.67416222924152
  C           2.62086807296949      3.86337308508840     -3.16779437572744
  C           2.69640430722010      2.55525581718670     -2.99287047369922
  C           1.56069728556373      1.69920318932215     -2.53149294349249
  O           2.03768198318389      0.88074637639741     -1.46435316491734
  C           3.74685773500608      4.72494575603738     -3.64021097557542
  H           1.69351906703382      4.38387868401867     -2.96289777098046
  H           3.61562266668040      2.01912130231039     -3.18128725835224
  H           1.21593871792567      1.05572719024185     -3.35418142659392
  H           0.71828786832512      2.31316230599643     -2.19053093806736
  C           3.37846015795038     -0.79243011142770      1.71340668623391
  H           2.00794329835361      0.76558083523278      2.27987831565202
  H           2.95281511246281      1.12302400878244      0.82062858418189
  H           2.85572967712563     -1.58340228683332      2.24646321601359
  H           4.18297407616015     -0.42245809245599      2.34443892469520
  H           3.81063887511246     -1.21302372434690      0.80907619416607
  C           4.07519322371399      5.80864587797148     -2.61344537036850
  H           3.45934028641617      5.20293742067451     -4.58120396674998
  H           4.63008223870636      4.11205895573918     -3.82643252167986
  H           3.20682799499321      6.43782596357709     -2.43125662998474
  H           4.88751303201029      6.43688539925308     -2.97074980502732
  H           4.37536013551061      5.35580982629437     -1.67144821210620
