18
Coordinates from ORCA-job NEB_product E -29.881509835870
  C           1.53141675158297     -2.09611965845884     -0.22482557060068
  C           1.17878303579144     -1.05832215856193      0.80361450524608
  N           1.10775593164628     -1.72187127252007     -1.55891720959757
  H           2.61659370600474     -2.24984042500853     -0.22021209393569
  F           1.72098100810130     -1.34704725156107      2.02241440945432
  C           0.89226058425435     -3.45723518933104      0.18381596178552
  C          -0.61171570786610     -3.35934074521111      0.14260910066373
  C          -1.37435006924958     -3.27311925409465      1.21593914054637
  O           0.51676222917354     -0.08818918838455      0.67804131886451
  N           1.44566231050250     -4.46597551164117     -0.70111679072453
  H           1.21592669565744     -3.69273103488045      1.20492249995352
  H          -1.04615155343410     -3.38414534404429     -0.84841638679844
  H          -0.95451258626283     -3.25380122569026      2.20867610528982
  H          -2.44729083583330     -3.21258362918728      1.15102321585289
  H           0.15362168144718     -1.37503336843775     -1.53261358543394
  H           1.69064410737430     -0.97763606445572     -1.92437573898218
  H           1.29049503475884     -4.18298660436568     -1.66387742767591
  H           0.98531767635103     -5.35642207416559     -0.54850145390781
