17
Coordinates from ORCA-job NEB E -32.283477102340
  C           0.07702910213056     -0.74870161939083      0.80705020181852
  C          -0.60276314954069     -1.17682430184051     -0.41429031712720
  C          -0.83869592040485     -0.44895171110937      1.87273847382676
  H           0.84473890861654     -1.44845567532145      1.14644903300912
  C          -0.03723836057544     -2.24092453749934     -1.14895351224515
  C           0.81418382703816      0.75235579853364      0.44628609564811
  C           0.18747442960049      1.36600613801707     -0.71570235259587
  C          -1.22331424864079      1.22349993526960     -0.75871198708707
  O          -1.43373301983308     -0.36576445893799     -0.97516096910637
  C           2.22595766944497      0.51671612802806      0.29126745252862
  H           0.62968523590501      1.30846005279660      1.37178942626731
  H           0.72523634234865      1.30386927490392     -1.65367813649584
  H          -1.73822835047926      1.62102704507783     -1.62518679028446
  H          -1.76040484658174      1.41339557293642      0.16981802051394
  N          -1.57794783984144     -0.20665470229343      2.70967990565436
  N           0.36723054352034     -3.17069301024357     -1.69055422717330
  N           3.34078967729259      0.30164007107335      0.16715968284852
