17
Coordinates from ORCA-job NEB_product E -32.320577647240
  C           2.65523506481287      1.25015247621397     -0.37727303212646
  C           1.35805237735686      0.73907831828477     -1.01320188034678
  C           2.74208088442816      0.63629180723898      0.93292580193536
  H           3.51631388789828      0.91790212722238     -0.97188380627102
  C           1.50396394569365     -0.62884535916419     -1.47850579262321
  C           2.63045392921827      2.79352805984492     -0.25653291352736
  C           2.64156880026789      3.43080434145243     -1.62364925019408
  C           1.68362311353102      4.22356495672544     -2.06137543726450
  O           0.34950462225763      1.37901213809393     -1.10108523247659
  C           3.79888946180262      3.23494904457728      0.47711243976403
  H           1.73049350925064      3.09756451509276      0.29169576903260
  H           3.50498669752199      3.19730481404292     -2.23322693941661
  H           1.72198506667218      4.66197657405450     -3.04327195275599
  H           0.82043885074791      4.46169122882190     -1.46223214458770
  N           2.78060083272591      0.17386076843140      1.97515774504623
  N           1.66497815432472     -1.69898756699798     -1.84849956426247
  N           4.73953080148941      3.58515175606457      1.02104619007456
