17
Coordinates from ORCA-job NEB_reactant E -32.331068411220
  C           1.77598821306582      0.34554149275006     -0.05894204144941
  C           1.52291605733414      0.58614304284091     -1.36722856264124
  C           1.88062696791538      1.28199318312196      0.97569260895114
  H           1.89952801387170     -0.68363462871406      0.25166436679744
  C           1.43429969667596     -0.55792552567766     -2.21893063676357
  C           3.40080133184254      3.98694649083960     -0.12275726525313
  C           2.93037063632879      3.31565237119783     -1.17078468966903
  C           1.48489989321647      2.97757914725942     -1.37127412247813
  O           1.31681804145461      1.73301499953739     -2.02943548465627
  C           4.76591462786811      4.31464826848282     -0.00093052831209
  H           2.76515168347770      4.30731916668883      0.69197345031239
  H           3.59154166373893      2.99396471583437     -1.96562596611191
  H           1.03844886913643      3.70048959890846     -2.06531355209464
  H           0.92821635246912      3.00549047371603     -0.42852524285140
  N           1.96996166192274      2.01009440627838      1.86000527877877
  N           1.37151892514892     -1.49443742637623     -2.87295888194351
  N           5.87489736453263      4.58632022331190      0.09697126938457
