27
Coordinates from ORCA-job P E -30.841718577470
  C          -1.38980189144182      0.31000432400560     -2.45960598953609
  C          -0.14425707334486     -1.64055169711551     -0.96720801335370
  C          -1.49908435049075     -1.92929352041006     -1.52301969615973
  C          -2.09003591073222     -1.00202439744213     -2.26007285752388
  C          -0.92935075399518      0.79872761287258     -1.07616477845674
  C          -0.10510198306736     -0.24313546484761     -0.29512292700240
  H          -1.95329373982721     -2.88656455590581     -1.31751766080083
  H          -3.06692892068957     -1.14221458298874     -2.69648809343549
  C          -2.28671708096538      1.32912475458072     -3.16577643974388
  H           0.16628900276544     -2.40238495839807     -0.24997281388596
  H          -0.50040735471729      0.14034307813755     -3.08146942711958
  H           0.57373447135799     -1.64246015682488     -1.79315573683348
  H          -1.82188937478340      1.04934276824387     -0.50044450006414
  H          -0.55247466426070     -0.34942448807025      0.70026397589704
  H          -0.33393743231869      1.70565322529312     -1.16679273039218
  N           1.24060580214087      0.25781358363907     -0.04774027636572
  C          -1.55516007231075      2.60535421112461     -3.56559440672362
  H          -3.12660076996030      1.57997799683044     -2.51351265583899
  H          -2.69419047284603      0.86235439784691     -4.06636677849764
  H          -1.21431528754239      3.15323199206633     -2.69107203016289
  H          -2.21641695303510      3.25535028520317     -4.13440892665369
  H          -0.69155710225995      2.37181653816378     -4.18543497953652
  C           2.11405088533755      0.41418257239300     -1.19316380124453
  H           1.69906535716838     -0.32737055455099      0.64312918120275
  H           1.61389318751479      1.01220175203351     -1.95240665863677
  H           2.43754634736189     -0.53083176621009     -1.65396481525733
  H           3.00479613494207      0.95108705032989     -0.86681616387401
