27
Coordinates from ORCA-job R E -30.763694274140
  C          -1.42514209816303     -0.25037304920395     -3.14880838337372
  C           0.24851902120489     -2.65600854758773     -2.32659633804183
  C          -0.83960010705220     -2.19227664809815     -1.71680342640729
  C          -1.60283123728204     -1.00728609593674     -2.06889973915658
  C          -0.67897774109069      2.14844252363225      0.29610910993815
  C          -0.43279649781627      0.85773153946878      0.46991036776608
  H          -1.22014159997100     -2.73380509273184     -0.85729026318892
  H          -2.38919805319912     -0.74072094068551     -1.37458179272809
  C          -2.23684734582843      0.96198551803156     -3.48221253358574
  H           0.74573328841890     -3.54749284468183     -1.98392707972581
  H          -0.64850296943074     -0.50400355205870     -3.86781680985750
  H           0.68547621383625     -2.16783644645011     -3.18161200177165
  H          -1.55868073646419      2.59921643298606      0.72274154008692
  H          -1.12553598474866      0.25406768636837      1.04234527057942
  H          -0.03052428425779      2.80792374302423     -0.24108810672540
  N           0.68118623270908      0.14987899521726      0.05671698718819
  C          -1.35199602332835      2.18655188220402     -3.72158335967546
  H          -2.94623888310607      1.17584144717330     -2.68433573341997
  H          -2.80831363475825      0.75384218505405     -4.39331629131702
  H          -0.83339386762827      2.45541342970727     -2.80236885324217
  H          -1.98183199003381      3.01847240853184     -4.02430382091783
  H          -0.61893122693240      1.97452290303188     -4.49410087282782
  C           1.57023964773539      0.73870485949988     -0.92097993555544
  H           0.50222862684541     -0.82960106947430     -0.10665923103271
  H           1.97203170160050      1.67152864972792     -0.52592755498141
  H           1.05796423941316      0.95508477115311     -1.87174014369070
  H           2.39588530932772      0.05760531209708     -1.11066100433566
