23
Coordinates from ORCA-job NEB E -28.247857881220
  C           0.20415839498209     -0.80280880521949     -0.01120904393816
  C          -0.85456288664998     -0.56600901296605     -0.89131056182819
  C          -0.07611924912105     -0.89069442933179      1.47385658188854
  H           0.95123845876470     -1.51837625070568     -0.34482843342215
  C          -0.74628116698040     -0.93594669128288     -2.34645288077398
  C           1.05648208900086      0.94276383132358     -0.26334234521635
  C           0.06253472511822      1.83510332362409      0.10734693936394
  C          -1.14475206469442      1.82326449235030     -0.66594646435104
  O          -1.73718133548151      0.35508068106524     -0.56092768343056
  H           1.94286166189300      0.87210244403524      0.34899836307855
  H           1.26619289130404      0.82359254017823     -1.31892909838871
  H          -0.00116894352516      2.15191020328590      1.13818718823113
  H          -1.01259408663666      1.93724485399387     -1.74187732075676
  H          -1.95776524493517      2.43797148524025     -0.29512638428658
  C           1.16354789174678     -0.86934694667900      2.35933106249034
  H          -0.59372344433341     -1.84265000625203      1.63417572559786
  H          -0.76357899113175     -0.09539668913957      1.76238753285359
  H           1.89739608368618     -1.59211743140556      2.00778678012719
  H           0.89226191579950     -1.12810318536316      3.38042243421466
  H           1.62462977992485      0.11422085136050      2.37518150838800
  H          -0.26963574756905     -0.12777050475919     -2.90959741447082
  H          -1.74127486194101     -1.08190240207906     -2.76064731754021
  H          -0.16266586922065     -1.84213235127374     -2.47747916783026
