23
Coordinates from ORCA-job NEB_product E -60.979701026760
  C           2.22435670284683     -2.07403738011854      0.93923807884169
  C           0.86017950621066     -2.10719632007680      1.61514809326089
  C           2.10977776339416     -1.14247049786519     -0.28549415613244
  H           2.99150315141974     -1.65379272445184      1.59306523708888
  C           0.74983511469071     -1.35700944183835      2.95994925646531
  C           2.62095093958213     -3.50000662272888      0.48899976360324
  C           3.80629541883277     -3.48571237288528     -0.43935351106578
  C           3.76158142584477     -3.95832164048426     -1.66953338267915
  O          -0.12363200090533     -2.53118893212678      1.08491193938028
  C           2.93487247902914     -4.37750349188861      1.70274502489063
  H           1.75964089534464     -3.94104551455149     -0.02658877525988
  H           4.71013468358393     -3.05547718884626     -0.03434340970934
  H           2.86170063074011     -4.37731056646438     -2.08783455370505
  H           4.62435161661626     -3.93112792678020     -2.31101620240502
  F           3.33851768796038     -0.78078036820989     -0.71472727578708
  F           1.50291933747265     -1.74853115702159     -1.32143687772368
  H           1.55468603791790     -0.21944455275981     -0.05689540046920
  Cl          2.17126425850972     -1.47094807172199      3.99864494691965
  Cl          0.54587141215121      0.35002150390963      2.45507926169826
  Cl         -0.68227233773916     -1.88875196743117      3.84110877732481
  Cl          3.29043922592078     -6.02980976636111      1.16212924369502
  Cl          4.33320851326410     -3.76712225892828      2.61355288705854
  Cl          1.54011753731189     -4.43973274036894      2.81315103470942
