23
Coordinates from ORCA-job NEB_reactant E -60.967278388130
  C           1.44707712476212     -0.14159651805180      0.02136665650987
  C           1.50311241809844     -0.87880829382379      1.13823637365588
  C           1.96080505650050     -0.43850031860985     -1.35309540123882
  H           0.95867626099532      0.81513895812955      0.09427729083660
  C           0.91501157612391     -0.35290326441428      2.44077416590225
  C           3.27106062630902     -5.28191390855792      0.60955013134240
  C           3.18992849063794     -4.08999750847829      1.17895231712086
  C           2.72711423912193     -2.86220695925461      0.46339509645312
  O           2.02033756963993     -2.07613116233642      1.41702175837709
  C           3.75922928883242     -6.52121436863584      1.26699806922361
  H           2.98834924199644     -5.43028666223477     -0.42371732539040
  H           3.46388189974205     -3.93545357045102      2.21213597907806
  H           2.08393551183949     -3.12302407756553     -0.38129469308761
  H           3.60378898437809     -2.31079192436818      0.10058458971238
  F           3.31017944252146     -0.62304499917445     -1.38852668649973
  F           1.42682983739830     -1.57191247490364     -1.88688214734137
  H           1.73061765112437      0.38258145725800     -2.04668892977194
  Cl          2.26622715813224     -0.08776506085201      3.57453380060031
  Cl          0.01401764467192      1.15130280453071      2.29236107374686
  Cl         -0.17186024413663     -1.58665317792264      3.12081727090130
  Cl          2.48713678629259     -7.77505451858165      1.17215060890601
  Cl          5.19708021961062     -7.12427875164020      0.38577297028941
  Cl          4.20066321540754     -6.30638570006140      2.96357703067385
