23
Coordinates from ORCA-job P E -32.541267685700
  C          -1.09611246274310      0.08823213224997     -2.90752451287535
  C          -0.27968000968161     -1.68238451123607     -0.65155111056114
  C          -1.28531379459883     -2.07418796792699     -1.68568513118073
  C          -1.64695483914544     -1.29549409359642     -2.69143027302820
  C           0.19084892135505      0.28900477992130     -2.09546720128339
  C          -0.04439558273416     -0.17206294829564     -0.65946365844827
  H          -1.71163746110586     -3.06250116685767     -1.58338481698449
  H          -2.39922801024698     -1.61086496866815     -3.39852815945648
  O          -2.11983646017972      1.00151276202780     -2.53450075075189
  H          -0.62048618504071     -2.00209514534820      0.33540214830416
  H          -0.87323892576674      0.22542192244603     -3.98017218480537
  H           0.66201079425720     -2.20635345574669     -0.85271335160230
  H           0.48351566786654      1.34044223152464     -2.11699200968195
  H          -0.94597555827882      0.32416217767764     -0.28565936038497
  H           0.99151229254571     -0.29644057149584     -2.55169988627538
  C           1.12931224660275      0.20907831982233      0.23467268075329
  C          -2.00666407831668      2.28275357026611     -3.09334790641891
  H          -2.89377241249012      2.82994016553190     -2.77963906568232
  H          -1.97580143203274      2.23828007918028     -4.18971983130218
  H          -1.11569279114433      2.81499262570330     -2.73971349065363
  F           0.88361912956572     -0.15079688474632      1.53862821591748
  H           1.29853209458910      1.29120034686258      0.23748994886713
  H           2.04727885672375     -0.30943939929589     -0.06453029246509
