23
Coordinates from ORCA-job TS E -32.436111584240
  C          -0.85460321394326      0.05612917603453     -1.14325665934554
  C           0.42161261183505     -1.97504331482192      0.44389667603650
  C          -0.90575342390721     -1.99890314091881      0.14940169526309
  C          -1.53254026580272     -1.01078478709402     -0.63124591615309
  C          -0.16963258188912      0.88919526681773      0.93466648680110
  C           0.51792290600703     -0.06231070358426      1.62075558624089
  H          -1.55091388055143     -2.68458323097808      0.68119281696990
  H          -2.61119299184339     -0.98097967356863     -0.67039349651422
  O          -1.54256090701024      1.05627086674458     -1.75129239873211
  H           0.83662990160917     -2.70049250663264      1.12334145353499
  H           0.20667205534868      0.01656695048831     -1.34837912853613
  H           1.13027187436485     -1.51842410599905     -0.22245079276232
  H          -1.20690486462539      1.07722162792724      1.13636010167523
  H           0.04187616262976     -0.60236445355319      2.42373189419589
  H           0.36185449390639      1.64767751197378      0.38541170566953
  C           2.01545646216351      0.01387512078602      1.71011396678260
  C          -0.77244852784326      2.03033472102805     -2.41119797357438
  H          -1.47576039264237      2.69515831832554     -2.90929984254062
  H          -0.10877859289989      1.57970058579112     -3.15685198677421
  H          -0.17112044222715      2.61027256894069     -1.70225093597019
  F           2.57677577491446     -1.16352702967633      2.14175962123091
  H           2.31447560782718      0.77089972612494      2.44949654823981
  H           2.47866223457935      0.25411050584438      0.74649057826239
