21
Coordinates from ORCA-job NEB E -36.719161383610
  C           0.42306352855645      0.74876816454008     -0.48432666109007
  C          -0.96144407943752      0.81103908661994      0.17092643102083
  C           0.27207842470643      1.04178438731425     -1.97897229699671
  H           1.06130273873323      1.52363389171782     -0.04648936761889
  O          -1.07582822773798      1.74158452741837      1.15953847466880
  C           0.98943452625384     -0.64097150518967     -0.19090355937625
  C           0.20645228505028     -1.75262456076230     -0.78686997664913
  C          -0.29049721500453     -2.74644119755548     -0.07235684657281
  O          -1.87516661136873      0.12814090070893     -0.18080094748160
  I           3.06834154348777     -0.77822679069995     -0.89051954207522
  H           1.07772786641505     -0.78006789590254      0.88818762898671
  H           0.07089580663888     -1.72137366566614     -1.85781801460246
  H          -0.15961931131884     -2.80277724466121      0.99639796481144
  H          -0.85736130872606     -3.53888697644486     -0.52699969959085
  F           0.02616487176510      2.37463288838543     -2.15939842774402
  H          -0.57496005624734      0.49782950236403     -2.40862023203372
  H           1.19638904810283      0.81689928586607     -2.52327010532396
  C          -0.71396796415955      1.33302455879914      2.46762663176634
  H           0.34788345893565      1.06986563698707      2.52416592756012
  H          -1.32243149950616      0.48390099583450      2.79243718539793
  H          -0.90845782513881      2.19026601032653      3.10806543294353
