21
Coordinates from ORCA-job NEB_reactant E -36.706440866090
  C           1.70255165966380      0.06488289031038     -0.20445558256828
  C           1.88747569801779     -0.55615086329544      0.96511320786858
  C           1.18930478736032     -0.61154599452275     -1.42864333373954
  H           1.96054738156222      1.10781597187287     -0.26744981430240
  O           2.32893396691013      0.15798252192954      2.02826887963675
  C           4.42477344941002     -3.68670483277595      1.94031947305887
  C           3.88198044280306     -2.71932454879738      1.22828248293698
  C           2.51168911590772     -2.82237604800717      0.62491880286535
  O           1.60727449074370     -1.87450024540575      1.19331907170147
  I           6.33687605325559     -3.54910127299007      2.80381230552887
  H           3.93902035610036     -4.62948919191932      2.12843504999855
  H           4.39593288852402     -1.78271639245338      1.05786757925860
  H           2.05927899836869     -3.79424448264683      0.83328573759790
  H           2.59174728794256     -2.67974919311198     -0.45828473952983
  F           2.22540224906042     -1.11454069705059     -2.20977576816276
  H           0.64914641397928      0.09020602892656     -2.06926133967953
  H           0.55361636327816     -1.46865197542485     -1.18343002757142
  C           2.31121472286235     -0.46722488496510      3.29826731124777
  H           2.62584463758387      0.30037954948401      4.00169305073645
  H           3.00492629739046     -1.31144193322444      3.34068003150067
  H           1.30716273927548     -0.81640440593236      3.55003762161696
