15
Coordinates from ORCA-job NEB E -31.093769499420
  C          -0.66279810134933      0.96747697874527      0.91017289508558
  C           0.03527879254917      1.61827397902657     -0.09726505897266
  Cl          0.12170124799707      0.66557027345240      2.42094061608756
  H          -1.72124762024959      1.17201950490494      1.01752081234671
  F          -0.80833696495817      2.10903309129994     -1.08697478104998
  C          -0.59635917699441     -0.94189058681190      0.02618944761150
  C           0.77685096557651     -1.04290391660889     -0.18329842514856
  C           1.40836279013662     -0.22216132774737     -1.11644077432537
  O           1.21757375153934      1.43479653111890     -0.42186765658797
  O          -1.15631888415775     -1.72885520178562      0.96992099708129
  H          -1.23546221017720     -0.64381797856940     -0.80190082165396
  H           1.35406244952851     -1.50366138647506      0.60396402316490
  H           0.89816552725779      0.00972404263713     -2.04180776799757
  H           2.48360008393685     -0.25836559761629     -1.19056664844895
  H          -2.11507265063542     -1.63523840557061      0.99141314280748
