15
Coordinates from ORCA-job NEB_product E -31.133758548810
  C           1.81999602860985     -2.03889898261302      0.32845791726045
  C           0.45812762693066     -2.01637261470188      0.96890999034471
  Cl          1.82934363943989     -0.64807708095334     -0.79111770307921
  H           2.60386482142200     -1.88644104953931      1.07329420705275
  F           0.49297229377456     -1.36299331517709      2.15625487345027
  C           2.04158744688279     -3.35342968290110     -0.43444740937222
  C           3.32271281711927     -3.30351164537810     -1.22009348769665
  C           3.37504591453053     -3.31056185911183     -2.53774813429121
  O          -0.55972216448727     -2.44155352022529      0.55936095132422
  O           2.07590566597367     -4.34276477120647      0.57470474980159
  H           1.18537684914297     -3.51348280091144     -1.10754714891711
  H           4.21855739012693     -3.27277167657730     -0.61568260956691
  H           2.48202440817036     -3.34160022584831     -3.14018929800453
  H           4.31054771071075     -3.27303225453549     -3.06800886638992
  H           2.19965955165304     -5.20550852032004      0.16395196808376
