21
Coordinates from ORCA-job NEB E -44.563139438060
  C           0.52391639060825      0.38454193844272      1.10753404295884
  C          -0.81909037229883      0.23130107185499      1.41946983011661
  I           1.33835407990265      2.30856597057424      1.42868675271685
  H           1.21883250656456     -0.40137658339036      1.35955307965227
  C          -1.27625607038533     -1.17989582257026      1.81489616833817
  C           0.39264809294032      0.31080696908509     -1.04718396676546
  C          -0.98810800999090      0.39392844507393     -1.25825796080251
  C          -1.71030750323051      1.44878206798407     -0.73483109055101
  O          -1.69180906800644      1.07905362810932      1.11466980278856
  O           1.02383737072082     -0.81205406888438     -1.40897624244343
  H           0.97801525807387      1.22473536368249     -1.10621561838520
  H          -1.49493877402151     -0.53406074600423     -1.48592753075857
  H          -2.78141994527874      1.46944328735612     -0.84834490017907
  H          -1.24032359134674      2.41353585551574     -0.61724328402377
  Cl         -3.03326406116320     -1.25493963516944      1.91896992895847
  Cl         -0.71086137517135     -2.40596458537040      0.65149461311489
  Cl         -0.57462332976557     -1.56327041997708      3.40694212303373
  C           2.43685410362623     -0.77342246241466     -1.42201457167044
  H           2.83966642789348     -0.70201315261268     -0.40748228280397
  H           2.80517509124386      0.07010912006779     -2.01275577429412
  H           2.76370277908509     -1.70780624135304     -1.87298311900085
