22
Coordinates from ORCA-job NEB E -44.870825272940
  C           0.27084577582327     -0.64114601012887      0.86442324169473
  C          -1.09809356556760     -0.40264412812527      1.07586153628771
  C           1.24838859513930      0.26934445408468      1.56869079492753
  H           0.59351890050144     -1.67583779298258      0.86439436591446
  N          -2.01373135559443     -1.40729721553695      0.85140376493719
  C           0.25859127354289     -0.08752441299289     -1.03998771743880
  C          -0.20355142037008      1.23127672529321     -0.98570208576340
  C          -1.51072679755538      1.43253063486278     -0.45272979900209
  O          -1.54103369563212      0.81926206558671      1.05438328669880
  C           1.59141313668843     -0.36788419532185     -1.67412584639398
  H          -0.45994419058164     -0.84641276870077     -1.34135944506744
  H           0.50843863206084      2.03908616484005     -0.93428344292086
  H          -2.30120571306177      0.83900167403796     -0.90700226128929
  H          -1.80750748539831      2.46061919945304     -0.28699500819516
  F           2.51121659023995     -0.25802773250388      1.52009497080452
  H           0.99523131244785      0.35500647941481      2.63269065353428
  H           1.28764260132994      1.26932048209495      1.12659337971657
  H          -2.97690733802701     -1.17597654986049      1.03460176386392
  H          -1.74163596284979     -2.35428589680181      1.05155198298003
  Cl          1.35272520870695     -0.31182790176384     -3.45825160103539
  Cl          2.84635627694509      0.80811675628713     -1.27569964291982
  Cl          2.18996922121218     -1.99470003123612     -1.28855289133352
