22
Coordinates from ORCA-job NEB_reactant E -44.896720673330
  C           1.89574115676624     -0.24516598411280     -0.23493918628819
  C           1.38576589874038     -0.56635384313273     -1.43114209662922
  C           2.04648617794177      1.16121418604814      0.23059890812602
  H           2.25815343585201     -1.02721331818271      0.41117580452215
  N           1.29170302053233     -1.85778816209562     -1.91139495122473
  C           2.60575612702418      0.43941132537788     -5.39929639499498
  C           2.50032617321950      0.13800261620603     -4.11481207502492
  C           1.88456299956903      1.04445254601028     -3.09369271569681
  O           0.90387785954758      0.37339392254597     -2.31299478673609
  C           3.21664596261346     -0.42346313728354     -6.44234335280208
  H           2.24995368216540      1.38502681124133     -5.78495800294934
  H           2.85156716319244     -0.80999922019078     -3.73131378243300
  H           1.35685631789758      1.87511401408273     -3.56665687397847
  H           2.68192254725394      1.44033226847790     -2.45077097865768
  F           3.30465192441769      1.67166479233483     -0.08435212685369
  H           1.96223868565169      1.23598557089261      1.31817860790793
  H           1.32434794939275      1.82505550382409     -0.25483792954918
  H           0.60386649424775     -1.98185843413919     -2.63887317101295
  H           1.31148296537933     -2.59261554065392     -1.22298842442254
  Cl          2.02493128433824     -0.70396134387830     -7.74807492754608
  Cl          4.62748347555964      0.41734830702769     -7.15840605166262
  Cl          3.75707869869706     -1.99588288039990     -5.84560549209350
