24
Coordinates from ORCA-job NEB E -36.535723968420
  C           0.28012335756504     -0.40828167022030     -0.61388531294288
  C          -0.94943991404688      0.05721883036565     -1.09578832361866
  C           0.29137645403978     -1.69808878697360      0.17802254168425
  H           1.13152062034572     -0.30045219371373     -1.28011724023714
  C          -0.99767008290526      1.02075521830445     -2.27037893505238
  C           0.56344177028368      1.08429744413817      0.67503104188382
  C          -0.54579660893378      0.91029450757931      1.51129608198473
  C          -1.82762506165764      1.12072657984434      0.98593592243201
  O          -1.99246320913347      0.00687801781829     -0.34546222238272
  O           1.80651581330924      0.90277320919449      1.21161586948038
  H           0.51502233753069      1.88334936919059     -0.06269342591133
  H          -0.41692971297343      0.27388389300581      2.37292035084840
  H          -1.99538975225690      2.01569526107560      0.39818546995968
  H          -2.67360553049410      0.84183848686959      1.59641702372351
  C           1.64208453704786     -2.06271180200352      0.78050904384576
  H           0.00205788199244     -2.48883853898199     -0.52334353814779
  H          -0.47540933128544     -1.66078949629599      0.95118109907869
  H           2.41257802016381     -2.07267899752925      0.01160389201126
  H           1.58979986853677     -3.05524522617151      1.22200123587606
  H           1.92984608099218     -1.35831163426882      1.55417126135149
  F           0.25737505061837      1.36742299943323     -2.70965973215427
  H          -1.51105358867469      1.94817000580322     -1.98686181184205
  H          -1.52135052732688      0.56748721388627     -3.11939500257814
  H           2.48499152726289      1.10460730964971      0.55869471070733
