24
Coordinates from ORCA-job NEB_product E -36.567816427440
  C           2.46228378317116      1.19109695181279      0.43179764508207
  C           1.22651486984488      1.52738006755390     -0.38239120941316
  C           2.27299028208366     -0.16788066845971      1.11765735604563
  H           3.34412083442498      1.15515214530183     -0.21476794022076
  C           1.55405512031604      2.12512823585856     -1.74479520803770
  C           2.69469994508534      2.37629775616093      1.41198907325561
  C           1.80648955254372      2.29590088747474      2.62086054697297
  C           0.65473813131100      2.92998361209115      2.72900270899543
  O           0.10444542359554      1.35504434109548      0.00377524974784
  O           4.06735638189864      2.37409983980124      1.75046358263805
  H           2.46222486778223      3.30867618758222      0.86530102224997
  H           2.18112605304569      1.67349495892278      3.42194323140963
  H           0.26970481733700      3.55008393819523      1.93685755046385
  H           0.03826260504837      2.83801286184326      3.60621171860520
  C           3.54430194871571     -0.67495627137336      1.78377060607129
  H           1.95802450004172     -0.88532997570430      0.35519757877322
  H           1.46251767578461     -0.08868131436087      1.84282454377295
  H           4.33233376394904     -0.80579817922679      1.04578453877810
  H           3.35785210885319     -1.63260528461440      2.26393471128423
  H           3.90032793120449      0.02825314455444      2.52973293229388
  F           0.44267702928810      2.60487939813086     -2.37632432648000
  H           1.98741744283965      1.34957726960556     -2.38789277507688
  H           2.26056322979194      2.95628070382360     -1.64218428938826
  H           4.22047170204332      3.04080939393083      2.42855115217683
