24
Coordinates from ORCA-job NEB_reactant E -36.569874984300
  C           2.48533242219953      0.11486564032107      0.23335410042776
  C           1.92566827190028      1.30689424540522      0.06818236504108
  C           2.19773150753937     -0.83619051064578      1.35178477066337
  H           3.19790007375181     -0.21972895680711     -0.50612845692135
  C           2.20159945800944      2.20190623700099     -1.11697399054140
  C           2.20230101438975      4.75203825943127      2.07836686561742
  C           2.49262170596884      3.46292878497352      1.96505245149176
  C           1.48341096231253      2.37204413182031      2.15062066465066
  O           0.98128404478182      1.85573651707748      0.91730910648406
  O           3.06184816089116      5.77872184554456      1.90861949009013
  H           1.21487609366701      5.10402425725074      2.34019816257834
  H           3.49281960437979      3.14853289710488      1.69211974478723
  H           0.59582810144763      2.75150125532423      2.66065776676702
  H           1.92494087304703      1.55997959772563      2.74252588219504
  C           2.06685131409784     -2.26519153560455      0.83114245121704
  H           1.27386254851511     -0.54257682969015      1.85347121960087
  H           3.01327705192399     -0.79806125324170      2.08241089473487
  H           1.25562674882009     -2.33126910993055      0.11012592956009
  H           1.85785239055698     -2.94914017899852      1.65044764734851
  H           2.98706157983308     -2.58021809299484      0.34417002793468
  F           3.24012567650032      1.74190590606651     -1.88430181801780
  H           2.46351635479616      3.21301419070660     -0.78309497055012
  H           1.31728531749002      2.25609570453733     -1.76298278964963
  H           3.93837872318044      5.44428699762285      1.67692248449041
