19
Coordinates from ORCA-job NEB E -29.688054023440
  C          -0.96849234933309      0.66513495270052      0.28594280470689
  C          -0.41905730063579      1.22653221479138     -0.86794816063990
  N          -0.46224776778308      0.94984330524939      1.57644948719059
  H          -2.02032056036682      0.39160990256385      0.28687276476164
  O          -1.08069648329359      1.06325982688229     -2.07012020021858
  C           0.01337457619027     -1.20865912648024      0.03344891555473
  C           1.33475286463805     -0.75871821616842     -0.02040009894925
  C           1.77550893901174      0.00156928736015     -1.09677774421540
  O           0.80151305752889      1.54513306129121     -0.92512510692187
  N          -0.41993418218751     -1.94818999572373      1.11700446941630
  H          -0.48507049782855     -1.45437850617797     -0.89734608128899
  H           1.87249865652786     -0.69848192788824      0.91542212808642
  H           1.39883811418294     -0.21722224203768     -2.08589515980224
  H           2.76895337019655      0.41917559042489     -1.07391229214223
  H          -1.07918755218194      1.55193298645850      2.11011096590779
  H           0.44939379396517      1.38778165578944      1.48570640879682
  H          -1.99653874630061      0.80664022580760     -1.92097376657973
  H          -0.07043711927891     -1.59787317239525      1.99878957618867
  H          -1.41285081305155     -2.12508982244769      1.14875109014834
