19
Coordinates from ORCA-job NEB_reactant E -29.713755002630
  C           1.37304279333634     -0.02151122550805      0.17033755355764
  C           2.33274820272998     -0.68462869234511     -0.47834154825890
  N           0.06963651144726     -0.52832703195458      0.35674836047907
  H           1.52486996794387      0.99646953712676      0.49495346380783
  O           3.56801951930109     -0.14775950371344     -0.76184293800189
  C           3.90503429638843     -4.38263151519801      0.57400073662389
  C           3.97070043862077     -3.15769584132248      0.05925750254373
  C           3.26598260165077     -2.75517472505973     -1.19660480472652
  O           2.11458087512535     -1.94576254396378     -0.94288192369346
  N           4.60564462574097     -4.81670770494029      1.68260214225711
  H           3.34301520119040     -5.16063842664217      0.07431548278675
  H           4.52892633410724     -2.38036872130600      0.56142356654399
  H           2.86315119749688     -3.62858140724399     -1.71388636845424
  H           3.94574408762054     -2.21351559507354     -1.86382949547923
  H          -0.25591217739647     -0.41098874547507      1.30952525593741
  H           0.03797878855544     -1.50463408226129      0.08848908142020
  H           3.57429042526569      0.77305743862072     -0.48533008273621
  H           4.97863813021997     -4.08094375312104      2.26390843715879
  H           4.18700818065549     -5.57035746061891      2.20355557823403
