18
Coordinates from ORCA-job NEB E -29.296467400960
  C          -0.09367713802095     -1.36078656873675     -0.20797626141339
  C          -1.41623559767494     -1.08825820269249     -0.56555236288704
  O           0.13278168997220     -1.73475552629378      1.08709032491839
  H           0.53059241451532     -1.85336726756457     -0.95098230437486
  I          -1.73888798197298     -1.06686064569034     -2.72795501057663
  C           0.56632466560400      0.54041547125899     -0.25296930329754
  C          -0.33427151059552      1.12530831242832      0.63017823460090
  C          -1.69487632886311      1.21893940863553      0.26892360299921
  O          -2.19793287877538     -0.39928309837957      0.13245519733955
  C           2.01768603303130      0.41640485790775      0.12083425358016
  H           0.40488710789867      0.70307990261947     -1.31420493102396
  H          -0.08679825846802      1.13207886969423      1.68250503458559
  H          -1.92442427778105      1.53579690361844     -0.74428337549627
  H          -2.39078006549773      1.59324834204016      1.00643448637291
  H           1.05826319318920     -1.97350011784374      1.20539959444289
  H           2.52262877485056     -0.33652567695998     -0.48136616214619
  H           2.13308164006717      0.17826640525091      1.17637085820787
  H           2.51163851852125      1.36979863070743     -0.06490187583158
