18
Coordinates from ORCA-job NEB_product E -29.341647610160
  C           3.22641521817652      1.24222976659685     -0.64997035777486
  C           1.79962066246935      0.95054310336826     -1.02305980201745
  O           3.55771271432212      0.57956489965721      0.53137431386113
  H           3.90614137987380      0.86080383295669     -1.41906182276094
  I           1.35625548462366      1.36287747571505     -3.10328319423440
  C           3.39782496639692      2.79033214721439     -0.55177502165583
  C           2.45326282481335      3.34691190191321      0.47352190755149
  C           1.38627087230722      4.06632368348971      0.18216083304377
  O           0.94297468803037      0.57742517223053     -0.30033930951362
  C           4.84805148787258      3.10413688399426     -0.19041351428283
  H           3.16601165776259      3.21872053588986     -1.53115046016469
  H           2.70106991265383      3.12364299159068      1.50341533574762
  H           1.12459315686605      4.31055070434530     -0.83491817470588
  H           0.72995413639093      4.44585825481610      0.94598461307173
  H           2.85662087036012      0.72000227402233      1.18127947340184
  H           5.51568618746569      2.78743499466897     -0.98773329307609
  H           5.12852547493267      2.58408820489421      0.72245705663630
  H           4.96600830468223      4.17405317263639     -0.03868858312730
