18
Coordinates from ORCA-job NEB E -35.953489605310
  C           0.94819840867072      0.25775987203940     -0.39590286499844
  C           0.18052399150087      1.07789651101990      0.49053446725745
  N           0.61158618266869      0.38711831864606     -1.79171814118899
  H           2.02778492551077      0.27525732603165     -0.26456545114408
  N           0.80130667689842      1.68363627946809      1.54672470198294
  C           0.29961183603150     -1.43556353461233      0.01380024198351
  C          -1.07718237679644     -1.34889469145780     -0.22293182097704
  C          -1.78512843221637     -0.40051429441662      0.57832978839684
  O          -1.10371205259358      1.06992101547670      0.46230837428602
  I           1.42710815955910     -2.84903665060492     -1.12685100215711
  H           0.63991067151176     -1.47366828404388      1.04264965349791
  H          -1.47691532506794     -1.60770268237094     -1.18912805401627
  H          -1.69716896780776     -0.52591131118487      1.65612359662930
  H          -2.80357879080190     -0.20253257664922      0.26746180738236
  O           1.54697907330359      0.50833679482757     -2.55961138773599
  O          -0.56088124639522      0.38429438996425     -2.09605165476895
  H           0.23781044001711      2.30872186667097      2.10115280201386
  H           1.78374682600668      1.89088165119598      1.48767494355668
