18
Coordinates from ORCA-job NEB_reactant E -35.983987350910
  C           1.97984510792951     -0.10906231590055     -0.01856150963106
  C           1.35912964009671     -0.82327938587614      0.96683334122542
  N           2.22882548691173     -0.58335116249929     -1.30737483308215
  H           2.30350469565016      0.90293657711452      0.15400827076200
  N           1.04339647382970     -0.22910862971239      2.15386449363611
  C          -0.21338747932169     -5.23419422199501      1.58999863536972
  C          -0.21828522461360     -4.06087266183307      0.98888423077311
  C           0.19803394527142     -2.79058411594887      1.66843709366460
  O           1.01958329061935     -2.08790971625945      0.75254751935589
  I          -0.83635100508762     -7.00380427167366      0.65534763671971
  H           0.08641196411675     -5.37828706801765      2.61515609621632
  H          -0.50343119617187     -3.94207845113380     -0.04530325539597
  H           0.74175688737116     -3.01226408245540      2.59810036005211
  H          -0.69459271576152     -2.19226102459911      1.90572367561675
  O           2.79916605032598      0.18807368036600     -2.06557677020691
  O           1.87744765744496     -1.70711947032918     -1.62142893486294
  H           0.92109947669833     -0.79771215877488      2.97480938009826
  H           1.41844694469053      0.69037847952793      2.31153456968902
