20
Coordinates from ORCA-job NEB E -42.108086238950
  C          -0.54310688336311     -2.92823224878963     -1.37247798940197
  C           0.23096149374251     -1.86426314735034     -1.56339301851294
  N          -1.73230797402727     -2.90303734619579     -0.59211682859593
  H          -0.23821349771939     -3.89047179278489     -1.75056016670881
  O           1.49012211131141     -1.92541599213303     -2.07306965548453
  C           0.69650266707228      2.08505828896227      0.94213568447361
  C          -0.14101647635198      1.24186922117817      0.35622161053712
  C           0.16373481448608     -0.20389570894273      0.15091423095243
  O          -0.19666615061811     -0.61120955972651     -1.19854070570299
  C           0.29137875446755      3.38307229814444      1.55952959085594
  H           1.65931513840148      1.73806692014479      1.29681033486537
  H          -1.14960341752056      1.54851672220535      0.11310067313783
  H          -0.46730230924053     -0.77855524262448      0.84171966082912
  H           1.22204954169901     -0.42611752774134      0.32399962250472
  H          -2.24144255655795     -2.03389002189363     -0.74803217359128
  H          -1.46699532502800     -2.87750414500839      0.38914753391401
  H           1.88017804962501     -1.04281478559099     -2.03947997054605
  F          -1.01170736152936      3.64507307774787      1.46091021662312
  F           0.60766021596781      3.38657847897807      2.86340588622088
  F           0.94645916518314      4.45717251142077      1.03977546363037
