20
Coordinates from ORCA-job NEB_product E -42.152273324710
  C           2.13571627124800      2.13474517674293      0.65796002043225
  C           0.75535144026546      2.52668151090022      0.08511809929313
  N           2.12522500136121      0.77509697564648      1.15887469118109
  H           2.90789887806699      2.20910111335581     -0.11836807943443
  O           0.74696363252737      3.31994614486901     -0.98833079286488
  C           2.51325504587777      3.06587558529688      1.83777298130287
  C           3.85406274911975      2.66976634228602      2.39310603618353
  C           4.03992927329062      2.26935347776533      3.63462521645516
  O          -0.25527604877764      2.09608607210777      0.56126306796097
  C           2.56241831566270      4.52225253281583      1.39257537730035
  H           1.74409237542265      2.98866783907754      2.61279686219539
  H           4.67569486205148      2.73401370080704      1.69399524856578
  H           3.22807241015292      2.19975664160676      4.33862652173104
  H           5.01390708353069      1.99065538080365      3.99518091508462
  H           2.00265853231961      0.11689485873603      0.39747880622856
  H           1.33780558772606      0.65560344721784      1.78978083067303
  H           1.61713926452409      3.65256612920293     -1.24918818063649
  F           3.20351293988817      4.67240538997407      0.21181517493429
  F           1.34557121140072      5.05550542843500      1.21543942482031
  F           3.19550117434139      5.30702625235288      2.26817777859342
