20
Coordinates from ORCA-job NEB_reactant E -42.129209702110
  C           1.52247613139389      0.43566671141256     -0.09638317152802
  C           2.56822889794407      1.06857740871334      0.43765561070852
  N           0.47637437431343     -0.11229617551426      0.66149057476100
  H           1.49351485399114      0.21921960589029     -1.15310318243403
  O           3.65698143722839      1.50995475330614     -0.28058747830818
  C           2.89395456481164      4.73027718932131      2.70598213659680
  C           2.88663555947255      3.68943983275612      1.88947779196190
  C           3.46165007005589      2.34926289237442      2.22397039566114
  O           2.63693355547836      1.28755550542604      1.79063703240868
  C           2.33114011335855      6.06234627844355      2.32930440988805
  H           3.31677703202338      4.70275132015026      3.69859951307754
  H           2.44792967515784      3.76807475853829      0.90315674476621
  H           3.55780718156948      2.21612453096613      3.30336236771393
  H           4.45412979201530      2.26779643350764      1.75954285797131
  H          -0.43431300557816      0.04382682966376      0.24892431705321
  H           0.50897186785316      0.21749962018805      1.61761947869144
  H           3.57817393491915      1.20162050050288     -1.18763993691144
  F           1.76156210964855      6.08169255930874      1.11684366268438
  F           1.39023599846126      6.47467154260706      3.19904449446660
  F           3.27363585588214      7.02443790243767      2.32240238077094
