19
Coordinates from ORCA-job NEB_reactant E -33.821875971820
  C           1.50914399350127      0.05666197318091      0.25569295136759
  C           1.72289521615820     -1.08402681164602     -0.42097034501301
  N           1.35893479929626      1.28443707474175     -0.34117424063638
  H           1.49791618259276      0.05269844488061      1.33462347077199
  C           1.99044596298433     -2.36184776346554      0.31720175319417
  C           3.31160463424238     -4.13699688268469     -2.63736991153182
  C           2.38802100967310     -3.20080297149646     -2.73176859891768
  C           2.65303075435860     -1.73711595160309     -2.53690155889715
  O           1.62862731726461     -1.07367276166938     -1.79931994921275
  H           3.08288187935986     -5.17613571943654     -2.79795647523197
  H           4.33364482677233     -3.90250445929060     -2.38891890249045
  H           1.35977820219486     -3.44379712864757     -2.96145576275242
  H           2.63808016523647     -1.23730200092780     -3.51382422122495
  H           3.63249212245605     -1.57347135397619     -2.07337286231203
  H           1.21775354354917      1.23516821236496     -1.33934408724986
  H           0.76986619323116      1.94854854843108      0.13359588138910
  F           1.20849756189876     -3.38527251994884     -0.10993885449284
  F           3.27816304905511     -2.79866872831877      0.17522214178971
  H           1.81742258617471     -2.23889920048783      1.39737957145074
