19
Coordinates from ORCA-job NEB_product E -33.827503674370
  C           2.72748420287930     -1.02620792542842     -0.52644324078118
  C           1.43647501661503     -1.40778786753394      0.17171786914997
  N           2.64696961707607      0.24237009725097     -1.21184283484082
  H           3.49830923510100     -0.94465704532551      0.25361229379051
  C           1.48752365373165     -2.67066363129154      1.06918261474699
  C           3.16194938079948     -2.13000918950297     -1.51851004762378
  C           2.09233421068217     -2.39530126400613     -2.53247251950542
  C           2.16288417924629     -2.01080919980403     -3.79303196412398
  O           0.41261375300592     -0.78398788773534      0.08927558166661
  H           3.39154403527527     -3.04321550227405     -0.96808123154161
  H           4.06753943195289     -1.77550735777051     -2.01111687680325
  H           1.21886676626564     -2.91956487289549     -2.16635302233625
  H           1.37189650169232     -2.21047215565684     -4.49540797533529
  H           3.02294539610828     -1.48534088431985     -4.17546315466986
  H           2.04792021176996      0.15697904223294     -2.02741176526863
  H           2.24257490770202      0.95014748330623     -0.60794612523021
  F           1.24472424731074     -3.77665941029091      0.32657587505925
  F           2.71060083647746     -2.84052639561570      1.62322744049174
  H           0.73784441630848     -2.62608603333890      1.87368908315522
