24
Coordinates from ORCA-job NEB_reactant E -55.740267608640
  C           2.04719575457178     -0.08215885962670     -0.30975937479267
  C           1.89498755327919     -1.41398844582662     -0.17081240121913
  C           1.75994380454990      0.81642960905819     -1.44310973324287
  H           2.38822625240845      0.43586543417324      0.57072145059348
  O           2.16989691698622     -1.90134334541890      1.04825081801538
  C           3.04500851296482     -1.67188079793872     -4.26317133112798
  C           2.82208491615520     -2.09006488530078     -3.02786046494772
  C           1.45418563264875     -2.19651676335594     -2.42736363072320
  O           1.49758891369721     -2.37139884307186     -1.02395998905859
  C           4.36445575093429     -1.56415291622739     -4.91672392076306
  H           2.22431783583004     -1.36613566151725     -4.90056478463075
  H           3.63237924468761     -2.39276748111681     -2.37793016839793
  H           0.97277271846784     -3.11556677603599     -2.78312047130504
  H           0.81949165842387     -1.35588885650348     -2.71721125800541
  F           2.57364527745739      0.65940192514630     -2.51948044397592
  F           0.50646714572234      0.70030059224666     -1.95024955961077
  F           1.88926933369864      2.09494820284281     -1.08010727962634
  C           2.04775555368331     -3.29867124417144      1.26516186450769
  H           2.32638455823369     -3.44805899070127      2.30559352989080
  H           2.72100863879397     -3.86152505640195      0.61511789280221
  H           1.02229300798540     -3.63485196468237      1.10039098491518
  Br          4.41308088469506     -2.79418780930081     -6.46503647265973
  Br          4.62696321856761      0.26330953200775     -5.59232974949942
  Br          5.86949691555741     -2.00059659827667     -3.78074550713820
