17
Coordinates from ORCA-job NEB E -36.834551743950
  C           1.08228147938021     -0.11472455910796     -0.22968776014616
  C           0.49106422179674      0.70773939525938     -1.21504733588271
  C           0.91204072861423     -1.60409511541528     -0.34723821959053
  H           2.12287576125111      0.11246926490962      0.00446220417713
  H           1.00417590137637      1.63586676481728     -1.47974632582172
  C           0.12380188127848      0.54500506837611      1.28340775596213
  C          -1.22162935708088      0.35475708992470      0.94486619217434
  C          -1.71565546865507      1.03342218263371     -0.19808432586062
  O          -0.76631983120281      0.60368640912754     -1.47057768417644
  F           0.59731756319158     -0.12254263970490      2.35013832263591
  H           0.54861335681708      1.54736272389513      1.28218415965090
  H          -1.71038089821952     -0.54161981740369      1.29402031604741
  H          -1.55886934691197      2.10713649263288     -0.23726010564245
  H          -2.70103855577378      0.73915484503341     -0.53671088824797
  Br         -0.84871912072859     -2.24377668422280     -0.80767870784173
  Br          2.10422652727508     -2.15442388167741     -1.84517908506428
  Br          1.53621515759174     -2.60541753907772      1.20813148762679
