17
Coordinates from ORCA-job NEB_reactant E -36.881214421090
  C           1.50045987415016     -0.03811933537974     -0.17894349365095
  C           0.86685749651839      0.95651464942556      0.45005463657204
  C           1.97922951996021     -1.20649336943124      0.58149067427168
  H           1.67226461223642     -0.00775926789334     -1.24057508735732
  H           0.50644921266216      1.82574636656263     -0.08736985294371
  C           0.12487179722374      2.15813938037986      4.86371964027355
  C          -0.34811717501649      1.56305919432953      3.78560934939823
  C           0.01334516138452      1.98761619878730      2.39955983075902
  O           0.65819638149111      0.89109456303214      1.76874976582473
  F          -0.21922287852021      1.76496159764095      6.09196484125944
  H           0.79364776770056      3.00765946719906      4.88153277352974
  H          -0.99875263997735      0.70598335038670      3.87206061025863
  H           0.68946771655889      2.85177959753411      2.42004920318517
  H          -0.89280340394946      2.25319735180471      1.83746582609841
  Br          2.85581052110791     -2.50043340727772     -0.56874985606971
  Br          3.26005427609708     -0.67619382942162      1.98745290536573
  Br          0.49824176037236     -2.12315250767890      1.50412823322533
