19
Coordinates from ORCA-job NEB_reactant E -30.070464272450
  C           1.62196443589254      0.14703901576304      0.00693807912452
  C           1.06226804432078     -1.05568311604417     -0.15226254379058
  O           2.41968222393278      0.72663366836781     -0.95673425498383
  H           1.48726302784494      0.70728627055945      0.92749023943816
  O           0.34875084923993     -1.66643050233770      0.84560208028491
  C          -1.54761056266110     -3.42263962474495     -2.67974603664597
  C          -0.92175825399883     -2.86504180529482     -1.66164586722708
  C           0.54753210548921     -3.01396221050363     -1.39600229048695
  O           1.21191418824873     -1.76196983552835     -1.28957587897592
  H          -2.60659587917869     -3.30225449775843     -2.83160770376435
  H          -1.02714949239282     -4.03224013852714     -3.40006472523283
  H          -1.45379222181400     -2.25286279008832     -0.94676197551928
  H           1.04169356300429     -3.51698451627176     -2.23018713010610
  H           0.69789808065467     -3.59652471861623     -0.47767897200073
  C           2.06683995565195      2.05608448701103     -1.25716451441773
  H           2.81654800695425      2.42378537302253     -1.95502784373072
  H           2.07082369423282      2.68115397598786     -0.35501339483974
  H           1.07608759437586      2.11340602947782     -1.72240688935150
  H           0.34324064020268     -1.10369506447405      1.62604962222571
