19
Coordinates from ORCA-job NEB_product E -30.101997907560
  C           0.74536924809148     -0.51361729899905     -1.09737735939700
  C           1.90275423084626     -1.01081824345803     -0.21561578584838
  O           1.16382621782574      0.40229256730353     -2.07582119599964
  H           0.00983433633740     -0.03019662509167     -0.42222865180168
  O           1.55792013155810     -1.95190505772998      0.67711247255985
  C           0.07545421106080     -1.69464397629356     -1.82964507601518
  C          -0.86600091972500     -2.46092106740023     -0.95571123791499
  C          -0.78376583449296     -3.76072155346591     -0.72196029720051
  O           3.02227068874452     -0.59723542918955     -0.27856078423729
  H          -0.47884209173996     -1.25986320559588     -2.66540326290414
  H           0.84503487004764     -2.34749695196222     -2.24440076031682
  H          -1.66875641693399     -1.87816719978148     -0.51892850233960
  H          -0.00364615981150     -4.36536641629615     -1.15458464428286
  H          -1.49804879288542     -4.27512492580355     -0.10218419009191
  C           1.53974046807088      1.67119457339215     -1.58695893196474
  H           1.75519734871900      2.27389633827767     -2.46643229928121
  H           2.42871677823267      1.61499564888970     -0.95559865138342
  H           0.71822180417906      2.12956527030478     -1.02103795938136
  H           0.65371988187527     -2.28626644710059      0.54413711780089
