17
Coordinates from ORCA-job NEB_reactant E -37.932441697810
  C           1.48399124649958      0.23595223631837      0.66127466257668
  C           2.38461788059719     -0.58946133711364      1.16936639332911
  I          -0.52889144670709     -0.33449755470965      0.51798842581777
  H           1.71935984978710      1.21402098075510      0.29088187543306
  H           3.42586223814975     -0.29362204035219      1.25759486048820
  C           2.29169495691380     -1.18422579997275      4.31049992742211
  C           3.10974819070492     -2.06565985663616      3.75949509976370
  C           3.01546859933286     -2.52706472348992      2.33665718265650
  O           2.05933541957876     -1.84001329556247      1.57389834971344
  C           2.42131086004166     -0.73291020528997      5.72932863984875
  H           1.46975534796773     -0.72657511600160      3.78083775365318
  H           3.91148580083612     -2.51296858209183      4.33084409196383
  H           2.70791309350300     -3.57866735325809      2.32304166288474
  H           4.01095510933150     -2.45757209567048      1.87228081973486
  F           2.65130430265473      0.59150337178561      5.80839187096936
  F           1.30431678061426     -0.96262642921813      6.43685848622117
  F           3.42397177019415     -1.33041219949219      6.38915989752353
