17
Coordinates from ORCA-job NEB_product E -37.938453541620
  C           1.94161204943933     -0.04858742919363      2.40892077040646
  C           0.51286142760939      0.40946517337334      2.56867307483889
  I           1.98644184922372     -0.59476728554556      0.30864341019297
  H           2.65101203637667      0.77393018045788      2.50439531519926
  H           0.32098561097405      1.39892206914492      2.11677025809202
  C           2.29913301435750     -1.22436569269341      3.31318737099791
  C           3.48785326782015     -2.01265230441000      2.83601637710960
  C           3.46461898522741     -3.31799316199091      2.64908120154242
  O          -0.34977000878641     -0.24401563951080      3.07392006952543
  C           2.62212843813459     -0.66785174580602      4.70091606598536
  H           1.42158277034428     -1.87339866903873      3.42238160692802
  H           4.38470810415204     -1.43343545798301      2.66189061371659
  H           2.57824419773985     -3.90425151053272      2.82631721566330
  H           4.33314379196549     -3.85021507154589      2.30438949781630
  F           3.72755732562299      0.09741111433416      4.68581315135366
  F           1.64743737265447      0.10460738497143      5.19995391762181
  F           2.83894976714449     -1.64230195403104      5.58823008301003
