20
Coordinates from ORCA-job NEB_reactant E -41.104655742180
  C           0.42135568575097      1.06246202003391      0.11022272898948
  C           1.69279607218543      1.44827368468554      0.12349044949079
  I          -0.64906212277927      0.83543792570198      1.90141030181495
  H          -0.12165190333915      0.82607376769806     -0.78312904741388
  C           2.47850635530235      1.63035020438707     -1.13935432687846
  C           2.15699432868663      4.45455064689825      1.09336840061556
  C           3.32401935520563      3.83951832957545      1.19746567485876
  C           3.47930157788126      2.36731734872886      1.43090410602688
  O           2.28546284036282      1.63733668899426      1.34030702944812
  C           2.03327261555927      5.92151876616017      0.83977052065078
  H           1.20970175533155      3.94337298468489      1.17638399730790
  H           4.25118889003866      4.39147487015691      1.12479923587694
  H           3.82524704722971      2.21185645359352      2.45979959233550
  H           4.25120655444907      1.97110927080327      0.75745202589128
  H           3.34458252288737      0.96849289347349     -1.14708381423321
  H           2.82476699703323      2.65881786985579     -1.23806775530802
  H           1.85428732728354      1.39170920622828     -1.99450661212664
  F           3.21298261530179      6.55945841293845      0.81551868349093
  F           1.44682934826868      6.16910302462771     -0.34841058421529
  F           1.28141213736047      6.53606563077414      1.76465939337761
