20
Coordinates from ORCA-job NEB_product E -41.119232307040
  C           2.19799041097352      2.45902470988308     -0.09917616274132
  C           0.85162292670629      2.66267283880260     -0.79201441644711
  I           2.10962392975621      0.41631153059956      0.62219887941926
  H           3.03177680202655      2.48232200351992     -0.80140705477185
  C           0.84098564403476      2.29542370539383     -2.24449134112602
  C           2.40470982341047      3.44130136715600      1.05057059843348
  C           3.48431384401486      3.02857913781088      2.01214035163612
  C           3.29980661604353      2.93919431965977      3.31489552645551
  O          -0.09868901266872      3.07540103948008     -0.18488951586968
  C           2.79521876260263      4.78939699751977      0.44604157764498
  H           1.45166391494261      3.58441236276615      1.57454463227619
  H           4.44439421040241      2.81357866751145      1.56230141395688
  H           2.34870935198137      3.15584884813014      3.77230209378539
  H           4.09400473956276      2.63799606020158      3.97455128322762
  H           1.35960658961721      3.07907242092799     -2.79694400212510
  H          -0.18207916792255      2.23148758063623     -2.60496530167619
  H           1.35877828183112      1.35425836746059     -2.41621858765402
  F           3.99465544982187      4.73696694614399     -0.16076834430077
  F           1.93459187190243      5.21814552562071     -0.49069798906467
  F           2.87201501096067      5.75010557077569      1.37002635894130
