19
Coordinates from ORCA-job P E -25.315551772650
  C          -1.41110456736070      0.45276031732463     -2.29063398397727
  C          -0.09240326393745     -1.64776375518439     -1.15854574946626
  C          -1.47695485652319     -1.88239299460666     -1.67128560621300
  C          -2.11664278689698     -0.86468625974816     -2.22520292816759
  C          -0.81611194455882      0.79637475574162     -0.91617427425682
  C          -0.05554998799521     -0.38311636829671     -0.27930154709432
  H          -1.91289842391689     -2.86405208997575     -1.57441505871576
  H          -3.11802388953657     -0.94628463860350     -2.61726940838813
  H          -2.08298838762983      1.25021186442861     -2.60810470161949
  H           0.27395961112894     -2.49859049553510     -0.58495929163811
  H          -0.59849157307631      0.38794503162414     -3.02122551795237
  H           0.58281549106517     -1.50043156188416     -2.00850889208431
  H          -1.63292211277726      1.09342418440577     -0.25716710600809
  H          -0.52233111453857     -0.63643745644321      0.67768668421164
  H          -0.15173195835299      1.65636504649493     -1.02251198889477
  C           1.39040721603931      0.01151528912904      0.00935976863008
  F           2.04546428230840     -0.99468736526389      0.67949560997217
  H           1.44312215348398      0.89641182830726      0.65278273433181
  H           1.95066611307497      0.18774466808553     -0.91546874266942
