19
Coordinates from ORCA-job R E -25.216267337310
  C          -1.99984170807779     -0.08038396376633     -3.15139896444586
  C           0.32434497976221     -1.94333289469397     -2.62009680389976
  C          -0.74694872040406     -1.78120776378081     -1.85142000484991
  C          -1.91416508518949     -0.97517206645382     -2.17357278353552
  C          -0.42343381182240      1.42137841658639     -0.34438744171156
  C          -0.20970212187823      0.66319011899035      0.71289519519296
  H          -0.79151529453454     -2.28897038776359     -0.89666218653205
  H          -2.76926053011707     -1.13365646519397     -1.52873801940690
  H          -2.90252815570039      0.47898763591822     -3.32752121622536
  H           1.15050456517901     -2.56110042860583     -2.31120046131314
  H          -1.17442908061983      0.13309638941582     -3.80890115614211
  H           0.41370391270983     -1.48216343654004     -3.58927659549368
  H          -1.26206410039494      2.09261904191997     -0.40118909526583
  H          -0.87924520151285      0.67406495457452      1.56178456551176
  H           0.23614545077518      1.40493070757011     -1.19580010982287
  C           0.95328401907385     -0.26596905957977      0.84830714542740
  F           0.55424201610316     -1.46457389768145      1.39715069286256
  H           1.70669411899845      0.14513553317336      1.53338147911656
  H           1.40869474764992     -0.49333243408916     -0.12012423946670
