19
Coordinates from ORCA-job TS E -25.202929310720
  C          -0.93861595926685      0.68094455171887     -1.55884876883894
  C           0.33040416056328     -1.54673343029258     -0.27854442621083
  C          -0.98215447396669     -1.54987623226438     -0.60386299898437
  C          -1.60717185575708     -0.46100240820647     -1.25685160123712
  C          -0.41571998508262      1.31098793148198      0.53687117592903
  C           0.33895256915726      0.35991263984008      1.14160685151380
  H          -1.62729648052381     -2.31688817773759     -0.19616951629874
  H          -2.68769279742288     -0.46933814493804     -1.31116151162808
  H          -1.47183419571338      1.53403152627566     -1.94683667441072
  H           0.74982229149586     -2.32898360215011      0.33130804058442
  H           0.11972554706186      0.67686968708899     -1.74681078456906
  H           1.04243064333462     -0.95270814165960     -0.81976549740187
  H          -1.46168368906744      1.39875572665120      0.76645941016023
  H          -0.09625358943784     -0.32880993179923      1.84706559472714
  H           0.05116159140737      2.17417485001044      0.09410920849414
  C           1.83128408402831      0.49111759107188      1.20985367245796
  F           2.44643445884791     -0.70371703811326      1.49735629125729
  H           2.11632185306429      1.17424971504843      2.02331901532890
  H           2.26188582727782      0.85701288797373      0.27090251912682
