19
Coordinates from ORCA-job NEB_reactant E -33.664280952060
  C           2.49056224215754     -0.04465752687156      0.21986102912888
  C           2.16162385876214      0.31529051596078      1.46529009975717
  Br          2.61849725927165     -1.77230903511771     -0.52203700924160
  H           2.70580510147700      0.73316151858376     -0.48995636919076
  O           2.13264106801812      1.65916443600789      1.67611018981225
  C           4.48128912347092     -1.45286040073283      2.75487130018749
  C           3.43644807406000     -2.23476935501227      2.52174275129814
  C           2.01009926274626     -1.78730554651576      2.64440552915960
  O           1.83544447111147     -0.38224334928593      2.57041601018364
  O           5.77774647901341     -1.81019159950567      2.64253591036517
  H           4.38713393137412     -0.42125820211803      3.06315002875075
  H           3.57029100399448     -3.26103242519708      2.21086834416241
  H           1.61353925140199     -2.03824955601888      3.63599048780305
  H           1.38925258349660     -2.29335101467769      1.89729513867000
  C           1.77872177520939      2.11472583525242      2.96878437032370
  H           1.82540141536187      3.19985697378475      2.90824365540451
  H           2.47930642057890      1.75298902722551      3.72514047917382
  H           0.76836605982269      1.79840495414931      3.23767319506862
  H           5.84243061867147     -2.72416524991100      2.33631485918314
