18
Coordinates from ORCA-job P E -25.576847543090
  C          -1.37397260974918      0.57732622581030     -2.16572804104540
  C          -0.51854958972166     -1.77505565297230     -0.59172098384257
  C          -1.33944712591093     -1.86976035247155     -1.83903722783608
  C          -1.73815743824862     -0.82399855401181     -2.54116921224366
  C          -1.01302546241535      0.67850366877736     -0.68890593987617
  C           0.05037803480206     -0.37080012624696     -0.35913301978312
  H          -1.61427737251938     -2.87011727183469     -2.14317203289533
  H          -2.34114185373572     -0.92850488094301     -3.43045384677032
  F          -2.43610367536691      1.42754327913569     -2.44188637399764
  H          -1.14508356968184     -2.05852594016482      0.26012365952875
  H          -0.54224676730070      0.93081970949155     -2.79115804133987
  H           0.30092145059000     -2.49679231047026     -0.64179319933413
  H          -1.90808711395076      0.49505431614845     -0.09249133355328
  H           0.31238886746050     -0.27452885957868      0.71319817569462
  H          -0.64756868149360      1.68201792757794     -0.46309629560001
  N           1.20374578934020     -0.16547620597910     -1.22434268791539
  H           1.58969665595834      0.76186646112336     -1.08462209480294
  H           1.93065046194353     -0.84061143339145     -1.01590150438745
