18
Coordinates from ORCA-job R E -25.491694646590
  C          -1.22355039714522      0.01052109771488     -2.89081829928340
  C          -0.45669872353488     -2.58014687187275     -1.57469737203049
  C          -1.68783583938555     -2.19374273395739     -1.89092916194387
  C          -2.04980379566609     -0.98997900055395     -2.61314856119456
  C          -0.74888948458178      1.39394997292157      0.32502206828530
  C           0.13258825850136      0.41282419223270      0.19901316227901
  H          -2.52513814001805     -2.81718413143588     -1.60377436191717
  H          -3.07815575498326     -0.90947409668307     -2.93736048189707
  F          -1.64985070788900      1.09035035477231     -3.56902638466479
  H          -0.27947319975244     -3.49242274310524     -1.03141542008331
  H          -0.18544793330886      0.09467124448485     -2.61235126722873
  H           0.41258610376058     -2.00964830671358     -1.84941849767652
  H          -1.70190857575003      1.23064562379817      0.79030005524310
  H          -0.07908167660858     -0.58105884202712      0.56855540875992
  H          -0.55147085360760      2.38372660113840     -0.04999692864278
  N           1.33368754646750      0.50857100572923     -0.49063660071005
  H           1.62286698022826      1.46021272277089     -0.67095948302056
  H           2.08245619327363     -0.06451608921403     -0.13208787427405
