26
Coordinates from ORCA-job NEB_product E -42.792189269190
  C           2.44406771155646      0.94010693122194     -0.74524821695221
  C           1.33892841430896      0.01820400950656     -1.10150447570172
  C           2.27022791271067      1.43280596592950      0.69934594235009
  H           3.39966032611242      0.41882814818513     -0.85670476015067
  N           1.77780040398101     -1.15284124632462     -2.03184603162776
  C           2.40823868408411      2.11813891497903     -1.79044935915047
  C           2.03069975916020      1.56873069872813     -3.14232156395748
  C           0.87241650698723      1.81049645144256     -3.72799000055409
  O           0.19136245297956      0.03851328939306     -0.80514852169783
  O           3.59691532274195      2.86406101294737     -1.77509701198854
  H           1.64005773254081      2.82633980678374     -1.45972224520289
  H           2.76763213398777      0.93657949834086     -3.61843013550033
  H           0.62028864180155      1.37900955343221     -4.68129509887844
  H           0.12441848612418      2.43741376927977     -3.27168932986717
  C           3.48544446937368      2.20153940647138      1.19921782071213
  H           2.10270397889062      0.56382212694813      1.34071534975299
  H           1.37933244303436      2.06029280795382      0.75629858090211
  H           4.37091941303591      1.56989050875205      1.18091888389917
  H           3.31881845235194      2.52768527818300      2.22257834849688
  H           3.66945873310063      3.07353703527853      0.57921220035169
  O           0.88435135344168     -1.78522741957398     -2.52364309484663
  O           2.96431462647060     -1.33264579397949     -2.18260135194154
  C           4.71817901803657      2.32689032496865     -2.44409973188528
  H           5.56915572675256      2.91575289887069     -2.10594242094854
  H           4.62288310210488      2.42833513953772     -3.52971636743399
  H           4.88992419432964      1.27604088274426     -2.19433740817948
