22
Coordinates from ORCA-job NEB_product E -35.583033818650
  C           2.75821438140634     -0.12161722090057     -1.84928067011142
  C           1.68051380768416     -0.74386373781625     -0.94238565547822
  N           3.08537164725957      1.22634261753235     -1.33901254493119
  H           3.68368441297422     -0.70256891113294     -1.78620890867857
  C           1.82746235261448     -2.23005581991748     -0.78802574633647
  C           2.24515628884509     -0.10164768146152     -3.31252888822223
  C           0.83566152908872      0.40917284200951     -3.41047638821378
  C          -0.16872308955905     -0.31239440064868     -3.86866736895871
  O           0.82070624096742     -0.09069282796470     -0.42796626822749
  C           3.18183285437342      0.72903352858043     -4.19321779112738
  H           2.26784277240484     -1.14136050376641     -3.65946640574035
  H           0.68590861897502      1.42652426538820     -3.08213324807090
  H          -0.03949427445820     -1.33193585409304     -4.19782468571062
  H          -1.16520128731591      0.08617398360266     -3.93869446536831
  O           4.14778950829899      1.32018677749914     -0.76643367358158
  O           2.29423970729387      2.11743128285402     -1.49421645138659
  H           1.98801914208718     -2.70386226904369     -1.75295206832953
  H           0.94097470028871     -2.64064386468258     -0.31294589544626
  H           2.69348198324929     -2.43464926178383     -0.16006092343794
  H           3.12353585106070      1.78349305034926     -3.93475858907268
  H           2.88904035559022      0.62181066246745     -5.23453855852084
  H           4.21248249687091      0.39572334292867     -4.08710480504894
