15
Coordinates from ORCA-job NEB E -31.098216308170
  C           0.08981574847467     -1.44030265382135     -0.15852408700112
  C          -1.24678251094064     -1.07396005918780     -0.01401041660168
  F           0.80168874403562     -1.68783455592324      0.96729434866145
  H           0.40575238373231     -2.09932619709992     -0.95942571376661
  Cl         -2.16686383030941     -1.19555353819391     -1.52784045607247
  C           0.89097591405126      0.34468279049653     -0.60665534620798
  C           0.40968010863950      1.08130440321124      0.48094310092731
  C          -0.96800850701021      1.31044547251147      0.60923229802345
  O          -1.65223393974248     -0.26926928606524      0.85902226521622
  O           2.20077628286499      0.05947018790955     -0.76042505867392
  H           0.41130960365323      0.44924282171064     -1.57511097704066
  H           1.02479109165967      1.11967147521000      1.37091488892722
  H          -1.52817536961235      1.55382340212751     -0.28566480644575
  H          -1.31661304936808      1.81044261713187      1.50051117237957
  H           2.64388732987194      0.03716311998266      0.09973878767498
