15
Coordinates from ORCA-job NEB_product E -31.131792816570
  C           3.12291629310808      1.05806803605933     -1.66055481121668
  C           1.61750730613648      1.01139956954296     -1.69102614723066
  F           3.65251326981569      0.21208033371698     -0.72134429500611
  H           3.52255088690349      0.74908197871350     -2.63527961733758
  Cl          0.91090817272408      0.25211107878500     -0.28935923047067
  C           3.59853255441830      2.51515754020722     -1.34800359440260
  C           3.10834670636943      2.91202574679460      0.01786582973422
  C           2.11874345750921      3.75896362957997      0.22309276568600
  O           0.94340696366296      1.48364347888864     -2.54733658447849
  O           4.98685372408826      2.59343385509011     -1.47600598939986
  H           3.18100471610184      3.16956401988372     -2.11913770521401
  H           3.62408494032147      2.43816834947844      0.84282115135500
  H           1.59871393130576      4.23188756466386     -0.59340010412541
  H           1.78748260682990      4.01089652552914      1.21541601028644
  H           5.39623447070505      2.05351829306653     -0.78654767817959
