15
Coordinates from ORCA-job NEB_reactant E -31.121090484500
  C           1.99799509689144      0.03714673066450     -0.34532701540746
  C           1.45578432463784      0.80453917016786     -1.28781944880393
  F           2.68514808487401      0.52045835688961      0.71722254767650
  H           1.94469380885537     -1.03693090353543     -0.35176846498125
  Cl          0.61932317759370     -0.00924677898678     -2.56092838130737
  C           4.22279473512777      3.77759831758668     -1.72063820175575
  C           3.61234570566106      2.94763940995233     -0.88368824909833
  C           2.14223207299489      3.00650796221819     -0.61753152756268
  O           1.39296302391524      2.12599488757367     -1.47103117176054
  O           5.53395973065788      3.77501290557813     -2.02255532626646
  H           3.69926771813437      4.56739825001048     -2.24085208907956
  H           4.16826877220892      2.16417652822413     -0.38764597245320
  H           1.74419503973820      3.99159712744504     -0.86770229897489
  H           1.92418567939325      2.77878877460875      0.42965869388447
  H           5.98324302931606      3.05951926160281     -1.55299309410957
