23
Coordinates from ORCA-job NEB E -52.245010445950
  C           0.00325206575153     -0.41797195673060      0.01863936551564
  C          -0.25072927122338      0.48806148465882     -1.14459863440259
  O           1.13630844916422     -1.18917855763994     -0.21569122868437
  H          -0.87399311117324     -1.05491291132919      0.20922419313447
  C          -0.03515406542931     -0.16739496327786     -2.48812096668015
  C           0.05661444849231      0.56842037037485      1.24068396096998
  C          -0.91388920646409      1.60888565847345      0.87598834644732
  C          -0.48127561555703      2.55357744130718     -0.17072679031303
  O           0.05077447798628      1.81778969855245     -1.23816779029242
  N          -0.32484193604013     -0.12423750609939      2.48498087897173
  H           1.08577849529102      0.93118107289116      1.34697820476523
  H          -1.81123488609213      1.75599192384774      1.44537609700834
  H           0.28325893397213      3.26580669381026      0.17013316915994
  H          -1.32453692261990      3.13359334881252     -0.56192577961646
  C           1.07043398121892     -2.54830626373566      0.17511691921627
  H           0.91108347819081     -2.64246655376190      1.25365466749628
  H           2.03231426517613     -2.97973738222022     -0.09043584388753
  H           0.27351510359757     -3.07043466409531     -0.36075435401684
  F          -0.73486461761291      0.45747561847625     -3.44780709446636
  F           1.23944868064450     -0.18534468739527     -2.91238235954767
  F          -0.45511144096201     -1.44241880994009     -2.48191595289364
  O          -1.38415801668569     -0.70187271851319      2.48447605500372
  O           0.44700671037439     -0.05650633646606      3.40727493711212
