23
Coordinates from ORCA-job NEB_product E -52.298340289000
  C           0.73660036033564      0.68920661927003      1.37268139663501
  C           0.48895969063693      1.18159419548960     -0.04504434987663
  O           1.83576893598328     -0.17028717056124      1.48418753405067
  H          -0.19062869941613      0.21821154705776      1.73921087297291
  C           1.76237325195258      1.21606282896800     -0.94338754240939
  C           1.02351951694432      1.92937356956055      2.24734933217687
  C          -0.00403686003740      3.01214258290532      2.09852579573680
  C           0.30196363105081      4.26536772392005      1.82068998715615
  O          -0.56101020618405      1.56656741205825     -0.46465144487738
  N           0.98527899101897      1.49135796546438      3.68637804512274
  H           2.03672683342045      2.29581137785000      2.06013798287204
  H          -1.02708551715424      2.69734190667251      2.25037058233039
  H           1.32014345710369      4.58458903019792      1.67220291898051
  H          -0.45898209894923      5.01943047134248      1.72690770540215
  C           1.52937796292150     -1.54427760918561      1.34080934562372
  H           0.80700711331889     -1.86033317202465      2.10004436328716
  H           2.46993754150103     -2.06879082554688      1.48758298713359
  H           1.13806899396097     -1.76932282079227      0.34459444755101
  F           2.15402660305111     -0.01040063178672     -1.30090317912083
  F           1.53675745520910      1.90381007324119     -2.06170141304713
  F           2.78595369529264      1.80570276124867     -0.31478434794159
  O           0.12307264703173      0.71540397762701      4.00291733929639
  O           1.79630670100740      1.99353818702364      4.41258164094484
