21
Coordinates from ORCA-job NEB_product E -33.215210226650
  C           1.45820062462482     -1.93575923620921      0.75524041853185
  C           2.28267673780866     -1.97619074336258      2.04022984344107
  Br          2.41469423883946     -0.76743221475809     -0.50936395324788
  H           0.49994825609757     -1.43926525715588      0.93345993815063
  C           2.35818744918198     -0.67579768401460      2.79779172547982
  C           1.23402360251492     -3.32966019055896      0.15835272838301
  C           0.29453050635547     -3.28830452453899     -1.01820175820889
  C          -0.85550663515950     -3.93228077231805     -1.05346678321627
  O           2.77877091179899     -3.00115464220451      2.42350874719061
  C           2.49450421168602     -3.90947857214560     -0.26558399661885
  H           0.82207545410873     -3.96853074828869      0.95108301456454
  H           0.62759589176129     -2.68738799703450     -1.85368507484868
  H          -1.19636744602053     -4.54311619153040     -0.23284618570135
  H          -1.50374156888244     -3.87855068571905     -1.91052434042728
  C           1.29119799937228     -0.69084566141267      3.89815698992137
  H           2.20389180023105      0.17968759602961      2.14056795647314
  H           3.34415081357609     -0.60285603712614      3.25918227230054
  H           0.29131772888362     -0.74315148262236      3.47136033644013
  H           1.36403774540274      0.21591532876376      4.49233608037446
  H           1.43600457195377     -1.54787534613296      4.55144220560545
  N           3.47370710586500     -4.35686493766012     -0.64474016458741
