21
Coordinates from ORCA-job NEB_reactant E -33.208343171360
  C           1.22826209089609     -0.83817938517012      0.33925746204311
  C           1.32696237708315     -1.37932176286012      1.55117474958994
  Br          0.51911429626749     -1.54690618686211     -1.28207415910293
  H           1.56670806676011      0.17256049122452      0.19033896442628
  C           1.86682740048405     -0.52509131425415      2.67777012356102
  C           1.47557805248719     -4.84693192343828     -0.78325721271840
  C           1.65418711895985     -4.22902062939079      0.38217404835199
  C           0.54649829823959     -3.64986516070257      1.20521956139753
  O           0.98759451736097     -2.59541796615955      2.03858928191715
  C           2.54690212453640     -5.41144741275738     -1.50141114492959
  H           0.49924179028666     -4.94291530628760     -1.23966710522678
  H           2.64408368271763     -4.13410481852734      0.80999758841991
  H           0.20105746474575     -4.41206869127737      1.91638808987912
  H          -0.30660788899577     -3.35329480918666      0.58696376790366
  C           0.72285337321279      0.14799581549745      3.43552861227892
  H           2.54706109235626      0.22918654179328      2.28375322214361
  H           2.41724389590919     -1.17607552376638      3.35806595843843
  H           0.16481230416529      0.80736187880678      2.77494136409940
  H           1.11622409154075      0.73486687735865      4.26140635006469
  H           0.04374410989100     -0.60114725291280      3.83404031938845
  N           3.41575174109556     -5.88038346112749     -2.08429984192553
