23
Coordinates from ORCA-job NEB E -33.028759820030
  C           0.43986864270494      0.36135521556877      1.04188966161605
  C          -0.66675807117274     -0.02121241976835      1.90269295750481
  N           0.64119679181069      1.72277668267158      0.72939486936509
  H           1.37170672041719     -0.14872203666709      1.27637330472327
  C          -1.72972719051343      0.90421430779397      2.04562515336375
  C          -0.01709861835836     -0.44835471144400     -0.46799379732480
  C          -0.24124233578027     -1.81218307516238     -0.11630993439050
  C          -1.30648797419824     -2.12475289618927      0.74237863746173
  O          -0.84665306737530     -1.27547589647131      2.14591790833322
  C           1.10044947303897     -0.18167530740102     -1.47305296637298
  H          -0.92278880017350      0.09860828802536     -0.72761509732143
  H           0.60984336546195     -2.47962562166573     -0.13660145543217
  H          -1.38809024351776     -3.13949575156900      1.10660005538659
  H          -2.26608359718111     -1.65200768410486      0.56264492099208
  H           1.46916900533781      2.12899587068984      1.13645520829125
  H          -0.17561375628325      2.29480809261111      0.90192912998354
  N          -2.55817356981940      1.67850680668703      2.24475601042175
  C           0.85962796943600      1.07622179064265     -2.29748696663293
  H           1.16300579589735     -1.04011997894306     -2.14566183032710
  H           2.05970702983524     -0.10065588578808     -0.95981165636966
  H          -0.06940379829701      0.99228499589599     -2.85693364192358
  H           1.67232714328281      1.22060742576073     -3.00543257086703
  H           0.80121908544744      1.94590178882711     -1.64975790048096
