26
Coordinates from ORCA-job R E -31.394327752220
  C          -1.52714216535585     -0.42716338222030     -2.87352502723366
  C          -0.13195318150403     -3.03598074131085     -2.21955541211795
  C          -1.41545555986035     -2.74745930543829     -2.01817645910787
  C          -2.09755890962418     -1.51586042362427     -2.34753459938859
  C          -0.01898885591104      2.33180618923316      0.01503092151720
  C           0.06094925958941      1.03710648190958     -0.22856022635343
  H          -2.04514995307481     -3.49634023525880     -1.55389285096187
  H          -3.15704894058320     -1.47590105305783     -2.13974489413272
  O          -2.24504291337539      0.68783784632113     -3.15119327974892
  H           0.27971203749227     -3.98680864604227     -1.92899921208997
  H          -0.46961970272064     -0.38279364218992     -3.10672445887832
  H           0.55318330960770     -2.34652444540256     -2.68127672867126
  H          -0.96289729933785      2.84970787702013      0.04896281296899
  H          -0.83640522045569      0.45629308637383     -0.40098733783073
  H           0.85932792054006      2.93211219464373      0.19262659119922
  C           1.33598082212266      0.25824204035490     -0.29038192087187
  C          -1.50278436020152      1.80036853473551     -3.59134844451876
  H          -2.22395482251468      2.58931999180199     -3.79662774217701
  H          -0.94661685951616      1.57094878624209     -4.50668393725556
  H          -0.80304277613313      2.13749986196583     -2.81873282355222
  C           1.26301681477562     -0.99227297047126      0.58270798243391
  H           2.17186450871387      0.88775206712211      0.02206780960584
  H           1.51573689116063     -0.04886738538784     -1.32563252932434
  H           1.07701162251312     -0.71936232237665      1.61907930587955
  H           2.19759324432975     -1.54634434020806      0.53333589610529
  H           0.45872508932342     -1.64196606473511      0.24360656450504
