17
Coordinates from ORCA-job NEB E -34.594155616430
  C           0.23166370206508     -0.26851368822609      1.40528497065131
  C          -1.15008597090731     -0.43116757559643      1.45719621071358
  H           0.62950689653384      0.72563860820649      1.55260004440551
  H           0.84808048398032     -1.05649314001662      1.81570229659212
  H          -1.56886723806898     -1.42829752605416      1.61380602213268
  C           0.44865064389191     -0.31241932375068     -0.49961680676900
  C          -0.40921601231618      0.69355292629393     -0.95123094158087
  C          -1.80115158601084      0.53664000634094     -0.66373173565399
  O          -1.92497545266233      0.47049949231899      0.92247913837593
  C           1.92666599949918     -0.10879603626439     -0.70764577858638
  H           0.17612570151125     -1.34851129495043     -0.67282497824024
  H          -0.01650008971476      1.69733318018943     -1.02673870977211
  H          -2.24438874915631     -0.40953534785305     -0.96762797163766
  H          -2.43212670811350      1.38098859365392     -0.91509115535716
  F           2.66597596574858     -1.02143732838902     -0.05758205139018
  F           2.26496961695463     -0.21208390481275     -2.00513529946802
  F           2.35567279676542      1.09260235890991     -0.29984325441552
