17
Coordinates from ORCA-job NEB_product E -34.640781691050
  C           3.09434416096542     -0.44380916502233     -2.00347957855986
  C           1.62144022987866     -0.54905611877214     -1.71578676778823
  H           3.62396977008652     -0.22832943770045     -1.07212251690910
  H           3.42776186362830     -1.42878366901043     -2.34636208530117
  H           1.39622321358004     -1.23080857810305     -0.87310521940376
  C           3.39577575967748      0.62576281142248     -3.06141568342242
  C           3.23272220909887      2.01275393644222     -2.50133310678540
  C           2.35390432201543      2.88438612441468     -2.95404272652477
  O           0.75262096259665      0.01061546766403     -2.31701090783947
  C           4.82217607626167      0.45189659402600     -3.56723009385702
  H           2.72668978470406      0.48825349843387     -3.91693587818732
  H           3.89628903171436      2.25545893781155     -1.68198376384006
  H           1.68559400623537      2.64739392066597     -3.76415187799860
  H           2.25949464472679      3.86495325605612     -2.52187387096453
  F           5.02180870184126     -0.75898808307355     -4.11791279297523
  F           5.14568090162670      1.35161217530702     -4.50400977161578
  F           5.73330436136241      0.57028832943801     -2.58804335802726
