23
Coordinates from ORCA-job NEB E -28.252364745010
  C           0.21215260163953      1.01918453249509     -0.02642116722340
  C          -1.07697514657036      0.84951816417687      0.49659481762398
  C           0.36349420505834      1.35334868809337     -1.48959873361448
  H           0.91110342880528      1.55771183089972      0.60853401847545
  C          -1.33176527332131      1.00311524156671      1.97254033531983
  C           0.79088104189194     -0.82016666231727      0.11649449061205
  C          -0.16559442006304     -1.49670780569222     -0.64300583041201
  C          -1.52617087704686     -1.42228917486891     -0.22194570155681
  O          -1.93024612811105      0.13695566201638     -0.19887849384098
  C           2.23709551808803     -0.86637324742952     -0.30427572770081
  H           0.68113824732498     -0.88793598782088      1.19653596034841
  H           0.03304797012259     -1.65766369479940     -1.69295280603884
  H          -1.71824586943828     -1.69492630999918      0.81497636085739
  H          -2.26170322037950     -1.84861262846064     -0.89430877096645
  H          -0.37889470252690      0.82065145407402     -2.07701399870809
  H           1.35704530255989      1.11855036953859     -1.85932155046491
  H           0.19999633044052      2.42333945603919     -1.62063029303472
  H          -1.20249021173418      0.04171980433569      2.47896386153042
  H          -2.35847121452101      1.32287456402410      2.13602599126622
  H          -0.65296275327978      1.72628894962911      2.41434876942922
  H           2.33365436013643     -0.88315046554172     -1.38662020230452
  H           2.69055069795338     -1.77594452138370      0.08910091880815
  H           2.79336011297136     -0.01948821857542      0.09085775159489
