23
Coordinates from ORCA-job NEB_reactant E -28.280613988590
  C           1.94117678218264     -0.17865590604624      0.25932576872234
  C           1.47908971638855     -1.00098733457440      1.19944177220790
  C           2.34613399254934     -0.41632692496480     -1.16699883335042
  H           2.03544965321022      0.85326552311865      0.56752816546505
  C           1.15316098641369     -0.49524078803115      2.58135903477170
  C           3.75735355609427     -3.37604655313911      0.45463078004794
  C           2.70406166043231     -3.56281260513852     -0.32219406639329
  C           1.30763814771569     -3.10518516817488     -0.00421337169487
  O           1.19334749790961     -2.34022860977290      1.17110794422713
  C           5.13900247470869     -3.83635874253096      0.13539922531638
  H           3.64326577756391     -2.84538231969774      1.39031771566018
  H           2.78978610730770     -4.09577004030212     -1.26079684665820
  H           0.68404966179501     -3.99009223787084      0.18390462076321
  H           0.87760248115352     -2.57380437941536     -0.86195038007427
  H           2.82859413501906     -1.38001233779831     -1.30662499567371
  H           3.04848853271786      0.35851176555368     -1.46927426692135
  H           1.48606749297663     -0.35471452731387     -1.83694823872280
  H           1.67647255983215     -1.09752503480036      3.32139656018983
  H           0.08545402206462     -0.59854734793220      2.76768816961021
  H           1.43727829175579      0.54498107052136      2.69748724116371
  H           5.81554076763360     -2.98339510588708      0.08383085158328
  H           5.16642455678482     -4.36543621402555     -0.81423712328732
  H           5.50426114579035     -4.49883618177731      0.91952027304736
