23
Coordinates from ORCA-job NEB_product E -28.297596117130
  C           2.74261021608035     -1.11248595333372      0.35325361398238
  C           1.34812352161263     -0.99634589949487      0.95122615357378
  C           2.77013569450344     -0.47245551139812     -1.03205508538653
  H           3.45537706559026     -0.60375081873027      1.01068003848460
  C           1.31725233608632     -0.81537932585423      2.44932586689380
  C           3.11274240433564     -2.62223134124332      0.34378831720522
  C           2.26615374990526     -3.38128556461021     -0.63347774219589
  C           1.25596583759338     -4.15748748921925     -0.29186058433004
  O           0.34669291420343     -1.05293663526481      0.28534785811890
  C           4.59739392735688     -2.82719953668017      0.04081473341559
  H           2.91475459487604     -3.01168266457740      1.34959817160168
  H           2.53289792407085     -3.26027628319529     -1.67412904791256
  H           0.96728487181750     -4.29648845019179      0.73755310062839
  H           0.66598198698789     -4.68137533909715     -1.02393944318585
  H           1.95775369265015     -0.86620722711174     -1.63663493620346
  H           3.71582138608932     -0.65545690402300     -1.53395353856105
  H           2.63360476749802      0.60338060229316     -0.94086403555138
  H           2.01808555526462     -1.48871901532658      2.93609576668797
  H           0.31288436138707     -0.98146380086709      2.82955175888886
  H           1.61550663426906      0.20665091526607      2.67912471936278
  H           4.84180356656082     -2.49646896530360     -0.96508581815360
  H           4.84464251220816     -3.88369009120943      0.11864604185515
  H           5.21413047905291     -2.27554470082719      0.74729409078127
