14
Coordinates from ORCA-job NEB E -25.356390789300
  C           1.02403825563580      0.91804228447717      0.51790061914871
  C           0.75474808296360     -0.20362381756378      1.28117149519297
  H           1.82316622978123      0.80674320013383     -0.20247302115713
  H           0.97610911429204      1.89042542611940      0.98337167084203
  I          -0.33848042647596      0.10633233273055      3.13412078876044
  C          -0.44774930813837      0.82896496917373     -0.84762268948383
  C          -1.02878617810056     -0.42645605051599     -0.71203490037129
  C          -0.15186723330325     -1.53322618260246     -0.66174885758533
  O           0.68705957983676     -1.36648907125887      0.79703124300617
  I          -1.68673830321139      2.53764687019453     -0.59450007326801
  H           0.24902113056682      0.99692865875118     -1.65509732077814
  H          -1.96331209411728     -0.51040462747087     -0.17272941263080
  H           0.69089364019654     -1.53159803119203     -1.34586325533417
  H          -0.58810248992597     -2.51328596097639     -0.52152628634162
