14
Coordinates from ORCA-job NEB_product E -25.415651597000
  C           1.15520053050978      0.05250945266536     -1.49899209607242
  C           1.80377790485803     -1.13165855558823     -0.85099063506325
  H           1.94943741178866      0.73715773436436     -1.81174373822650
  H           0.47662426437632      0.56582193676706     -0.81763753399317
  I           0.74037869731359     -1.85500310693073      0.90045502035286
  C           0.39742188408622     -0.45521888663716     -2.72744622551009
  C          -0.74441518835751     -1.33589589737133     -2.37289194215008
  C          -0.92757608776328     -2.53626076071766     -2.89379232707198
  O           2.77036308975988     -1.70188874289979     -1.21524307921705
  I          -0.36155441677462      1.28150974525250     -3.83371850661318
  H           1.07982452777141     -0.94995884597561     -3.41946598688591
  H          -1.44282375804536     -0.93097756612910     -1.65216072729197
  H          -0.24750694229903     -2.95237937575849     -3.61954562439373
  H          -1.76165191722410     -3.15245713104118     -2.60842659786352
