14
Coordinates from ORCA-job NEB_reactant E -25.390570777520
  C           1.92799859395602     -0.01995924017021     -0.17625061954277
  C           1.28759859835203     -1.09956746718626     -0.58495353873233
  H           2.56594999963062      0.51486648298269     -0.85902552521783
  H           1.85306390122758      0.34182320151042      0.83092217759042
  I           0.00641776756736     -2.14198248316392      0.79612392092365
  C          -0.80680131384748     -0.58664897015866     -4.16409052747917
  C          -0.53744667914778     -0.90271143586271     -2.91322783253272
  C           0.33120983629495     -2.06440513711137     -2.53483590241765
  O           1.46456738166545     -1.66059055279115     -1.78531621328596
  I          -2.02816239478347      1.03431170140627     -4.70191072738092
  H          -0.43683078625841     -1.14300980997314     -5.00886857800317
  H          -0.92218774003640     -0.31820564317801     -2.08832136210142
  H           0.73699681412110     -2.56353108834909     -3.41686044717893
  H          -0.26017397874158     -2.78748955795487     -1.95188482464122
