23
Coordinates from ORCA-job NEB E -33.043733829480
  C          -0.11712693232533     -0.22012765156485     -1.36189213429802
  C          -1.39630176821683      0.37713569984637     -1.42690210090953
  C          -0.04331625561793     -1.60781157764515     -1.12125066092579
  H           0.63784678195199      0.14582424034247     -2.05090762697229
  N          -1.53989839450320      1.55911187897423     -2.12835639285558
  C           0.43212530304143      0.51969335355937      0.45386051019114
  C          -0.60467404928347      0.04081310980753      1.24980984714583
  C          -1.90398676118411      0.52530946403727      1.01720967678677
  O          -2.31951176191822      0.05426927141871     -0.60476965192812
  C           1.87535240594657      0.12507439976371      0.66203730172973
  H           0.33677974411206      1.55041615276917      0.11795763488967
  H          -0.50362827056663     -0.93010269228425      1.70853915427061
  H          -2.02460033765032      1.59223590544747      0.86325238732322
  H          -2.72095809666225      0.06785432947674      1.55615474194624
  N           0.02026813778830     -2.73923444207703     -0.94477406394811
  H          -2.48300585778316      1.90920160979906     -2.19042088545746
  H          -0.97109183388662      1.70239638077029     -2.94563608067480
  C           2.09979773585205     -1.18046256857824      1.41514252280099
  H           2.34522216568768      0.94063844649050      1.22358519300574
  H           2.38653565364043      0.07666973465101     -0.30256836890029
  H           1.61597737741225     -2.01039445332121      0.90911509063974
  H           3.16598933665295     -1.38807347395625      1.47262401023481
  H           1.71220567751237     -1.11043711772692      2.42818989590549
