23
Coordinates from ORCA-job NEB_product E -33.100299791230
  C           3.49521476910667      1.36099677548973      0.86549067991085
  C           2.36373244320417      2.17902464932674      0.21418655741596
  C           3.47905933043074      0.01135781741686      0.37428482513996
  H           4.44258560209865      1.83429668960833      0.58391056195438
  N           1.20851625580326      1.50539792355916      0.05622505252249
  C           3.32305177621594      1.46044503569132      2.40639682638133
  C           2.20209536714509      0.58070799218902      2.87420070876165
  C           1.13534826855128      1.02607289771466      3.51076446763616
  O           2.50689999899581      3.34056467434574     -0.07895379465452
  C           4.63671351314197      1.16153448327758      3.14997922878457
  H           3.06321419108551      2.50389665660659      2.62167912714243
  H           2.31177102414198     -0.47429488701648      2.66000760350470
  H           1.00293543367627      2.07284164417631      3.73197385842264
  H           0.35188033190356      0.36629605008716      3.84257507705529
  N           3.41711069919035     -1.04950789248573     -0.05245384697578
  H           0.41926744712445      1.98706999337658     -0.34210506619161
  H           1.11865379329688      0.53083974293273      0.28499084643130
  C           5.19393331922797     -0.24188929020205      2.94678754713938
  H           4.45305595572230      1.32112713190376      4.21534859444646
  H           5.38449653710745      1.89299803049773      2.83257053541282
  H           5.40322715040445     -0.43855223566193      1.89815470855392
  H           6.12341739492351     -0.34747973184608      3.50186379142547
  H           4.50031939750171     -0.99714415098776      3.30642210978016
