23
Coordinates from ORCA-job NEB_reactant E -33.079775289260
  C           2.02243662610028      0.36781263198713     -0.01471740569052
  C           1.55576048141058      1.57988745527766      0.37330598390699
  C           2.31461426574448     -0.73759913512422      0.77963327901750
  H           2.19597245026956      0.21511249690300     -1.07105770095873
  N           1.27104767600988      2.55553311084922     -0.54924460427403
  C           3.82766282651707      1.51848751195739      2.73646904496754
  C           2.77095489772780      0.82114938967673      3.11597688413066
  C           1.35684571272230      1.12902263518398      2.71321032573605
  O           1.24203134336513      2.01116699102330      1.61060538981994
  C           5.25356401146498      1.23028372936955      3.08729410160855
  H           3.69373181696833      2.38508509118844      2.09866800874693
  H           2.86020292600121     -0.04667499092299      3.74895606620191
  H           0.83931511067129      1.64993681426676      3.52767854185443
  H           0.81971895047476      0.19574429244158      2.50583599927797
  N           2.58436056003278     -1.69440548188696      1.36132495050912
  H           1.11986373605294      3.47647425266250     -0.17244737346142
  H           1.72502911441482      2.50472060860083     -1.44411597832427
  C           5.46549423426412     -0.04024901640094      3.89822049546375
  H           5.65383163030738      2.09038554365234      3.63499974423785
  H           5.82034868912545      1.16031710192666      2.15318280043047
  H           5.06607289388361     -0.89863214406100      3.36417718452795
  H           6.52802676571057     -0.20047778325990      4.06667175327608
  H           4.97311328076067      0.03241889468892      4.86487250899526
