17
Coordinates from ORCA-job NEB E -34.413292294470
  C          -0.22045874764432     -1.48213109696112     -0.25001878144097
  C          -0.97948152417879     -1.36602790788768      0.91198959566064
  Cl          1.41951848219858     -2.02053382753754     -0.10226008228406
  H          -0.71100987076003     -1.86324183089654     -1.13837059969026
  F          -2.34106332064562     -1.31381034140352      0.66161458591894
  C          -0.03367197418367      0.51676423035239     -0.58886337302541
  C           0.47229033029512      0.94458879346179      0.63242317956975
  C          -0.33425077514186      0.85326217007655      1.78442887778656
  O          -0.59465475216880     -0.83573935227851      1.97717795504396
  C           0.79834226794398      0.63422491749293     -1.84016025984416
  H          -1.09098640079144      0.65740144907456     -0.78905006253592
  H           1.54534766340379      0.98424668892246      0.75097680595824
  H          -1.37455480708556      1.14742760940902      1.70012509549234
  H           0.11437657143945      1.09609380371664      2.73693613217737
  F           2.13780261159830      0.67005815243226     -1.56888319016576
  H           0.55805822196391      1.57755651955335     -2.34829296566400
  H           0.63439602375694     -0.20013997752704     -2.52977291295727
