23
Coordinates from ORCA-job NEB E -61.768413881550
  C           0.46187079535410      0.28467096902031      0.82754850756697
  C          -0.90155129068801     -0.04278201139958      0.95889970757212
  C           0.85803338925202      1.67672732994309      1.25283965008991
  H           1.16763073391125     -0.42823512313442      1.25156429520724
  C          -1.37338639330332     -1.35118790663956      1.52712739279822
  C           0.73577346227907      0.11305311629671     -1.10701424414161
  C          -0.51921896302860     -0.07009995875829     -1.69573069479465
  C          -1.56789731318534      0.81890399663667     -1.30808185409278
  O          -1.79797023652535      0.58444189364890      0.26233816157246
  C           1.75161195182760     -0.98277676241147     -1.34891088406171
  H           1.17510425650590      1.10287751362909     -1.19754231287631
  H          -0.79820270612134     -1.06812606674980     -2.00365018564773
  H          -2.54986150284345      0.59486233413754     -1.71130134321657
  H          -1.34344653592172      1.88156437404342     -1.35026444613257
  Br          0.99403123031196      1.59635558784640      3.23730994902398
  Br          2.60596505024899      2.28258581716736      0.61616942804355
  Br         -0.39875204761023      3.09773218015716      0.85323652714685
  Br         -2.74641596704119     -0.91500907988208      2.87643289506381
  Br         -2.25248771801672     -2.41843819103848      0.12756600683962
  Br         -0.02114423967070     -2.43348441290877      2.38432330299114
  Cl          2.20737228382753     -0.93337173353318     -3.07950713906674
  Cl          3.23657300369844     -0.79998902645301     -0.38820505453089
  Cl          1.07636875673909     -2.59027483961803     -0.98514766535432
