23
Coordinates from ORCA-job NEB_reactant E -61.810102373880
  C           2.25673107537979     -0.45292574976334     -0.41927532980445
  C           1.45752947188440     -1.17038820484374     -1.21642527138233
  C           2.55492189440589      0.98863242900197     -0.50515571556784
  H           2.74889728739640     -0.96089282292272      0.40105391158938
  C           1.21599041112903     -2.62599324466566     -0.87193260564295
  C           3.49655895345024     -1.66107286671547     -4.15214506864604
  C           2.17880699194360     -1.61435863256659     -4.03001116802174
  C           1.45530316144955     -0.41926731785255     -3.49373865870968
  O           0.75504418328494     -0.74259583676943     -2.28271824341892
  C           4.27439475153753     -2.82817922085269     -4.64462533428138
  H           4.11686694974510     -0.80845974287221     -3.90870267637045
  H           1.56144337388423     -2.46609763870633     -4.27865506365465
  H           0.65425682162834     -0.11190205606070     -4.16958646437095
  H           2.14632491395581      0.41457505680509     -3.34582743815320
  Br          2.94753233447363      1.68453495514902      1.28635718033540
  Br          4.19215009660222      1.28650830956039     -1.61414789509661
  Br          1.10337417719895      2.06026795298706     -1.24025872875939
  Br          0.70881757286009     -2.85713590923400      0.99887609696334
  Br         -0.18392530339722     -3.36232252465933     -1.97270912044415
  Br          2.87332531812389     -3.64748162404702     -1.19287040540569
  Cl          5.02789622317606     -2.39870560773346     -6.20908556969337
  Cl          5.57570554252705     -3.19095902535971     -3.47283194994928
  Cl          3.30385379736049     -4.28788067787860     -4.86878448151504
