23
Coordinates from ORCA-job NEB_product E -61.814167479000
  C           2.77818757410793     -1.24905319003619     -1.70755818315373
  C           1.38543085504305     -1.86985798940945     -1.61508575220715
  C           2.77373785688895      0.12104980421539     -1.01898476582054
  H           3.52070663316907     -1.86357194921763     -1.18526269743186
  C           1.11251153970810     -3.03456978927437     -0.66133862258552
  C           3.22992252356135     -1.16992633330123     -3.19487490724765
  C           2.22538246298428     -0.54721077917834     -4.12599442509201
  C           2.39051689732332      0.65490467238957     -4.64661752063432
  O           0.44856360379916     -1.40908182157167     -2.20357682071337
  C           3.63167318161887     -2.56110465515267     -3.69259876672104
  H           4.14763897936925     -0.57221668094035     -3.23086099793283
  H           1.35045009107302     -1.13511448769618     -4.35851071089633
  H           1.65514460827254      1.08240064808823     -5.30420199362754
  H           3.25708515519936      1.26155765891013     -4.43696429771906
  Br          2.81328089520069     -0.12777153593394      0.92698039843358
  Br          4.39658731380209      1.14581831132620     -1.40523544181211
  Br          1.26474627252197      1.25323707828770     -1.46661282617268
  Br          0.14266258069802     -2.25017650846925      0.85535769761798
  Br         -0.13171712656495     -4.26914909206872     -1.50783182934760
  Br          2.64494898972469     -4.00688062743461     -0.00975797445835
  Cl          4.10184100439645     -2.46183368937176     -5.40408135735679
  Cl          5.02387283373227     -3.19640859255518     -2.76449076417161
  Cl          2.28182527437052     -3.70064045160566     -3.53229744094947
