20
Coordinates from ORCA-job NEB_product E -41.862857370540
  C           1.55504894048371     -2.46989563696287      0.02387709123083
  C           1.11232048673741     -1.28783631943106      0.85240917177365
  C           1.67246600115262     -2.04913692602491     -1.44364444724752
  H           2.55941813639803     -2.78260185144766      0.32787643471262
  Cl          1.50573646664601     -1.52242469075337      2.55032284781901
  C           0.55892189738326     -3.63739095009992      0.30190733428117
  C          -0.86690109719041     -3.15795989051083      0.25243331554306
  C          -1.65676177198129     -3.11964114956215      1.30819495746572
  O           0.54033521029224     -0.31867401195475      0.49416977866243
  C           0.76514093224753     -4.80864114767612     -0.65690889423251
  H           0.77579699112868     -3.97365590191476      1.32111617840775
  H          -1.22991439461804     -2.85100206667444     -0.71729285191322
  H          -1.31842094159955     -3.42288324572822      2.28600616761444
  H          -2.67628748630841     -2.78328639604953      1.23982547318007
  F           2.36670834197067     -0.90811725475334     -1.55952921174977
  F           2.35282651544682     -2.95969168372809     -2.15893165385070
  F           0.51096472430183     -1.86531665158614     -2.06819866852334
  H           0.46869191105326     -4.54780727759681     -1.66937618911408
  H           0.14933527679522     -5.64294613928286     -0.33022966197651
  H           1.80447385966041     -5.12759080826218     -0.66772717208308
