20
Coordinates from ORCA-job NEB E -40.018552644570
  C           0.88629532166831     -0.54185435727105      0.60420884110540
  C          -0.21214292685489     -0.25101743211143      1.42861791889739
  F           1.99384206893623      0.21325308834277      0.76028711950490
  H           1.17526971143465     -1.57946031310016      0.44719359131042
  C          -1.20700509642453     -1.29548066586048      1.76876513020552
  C           0.32291211029997      0.11406448188894     -1.11163571118008
  C           0.02050943261855      1.42367818747790     -0.75036924319242
  C          -1.02840060534865      1.66192251864277      0.21252130881767
  O          -0.60107183980416      1.00376287769480      1.54579936053358
  C           1.46801923444643     -0.15794636704533     -2.04836790503880
  H          -0.51158256789092     -0.56890402542091     -1.24621109956403
  H           0.77837521748090      2.18390625230659     -0.87426942855195
  H          -1.97890692357357      1.18023259535149     -0.02328899404226
  H          -1.16993873775317      2.69992248921356      0.49589081191042
  Br         -2.45719968221448     -0.60473455294160      3.06639908443572
  Br         -2.34002600054326     -1.89455547721514      0.15865744785570
  Br         -0.38151039143417     -2.91122045559486      2.45126064674887
  H           1.74156763436015     -1.20992048867770     -2.03468270212572
  H           2.33807546862921      0.43925284645925     -1.78821546930206
  H           1.16291857196741      0.09509879786055     -3.06256070832825
