20
Coordinates from ORCA-job NEB_reactant E -40.042485192420
  C           1.67906203868961     -0.08359833830297     -0.13850725410359
  C           1.62756396555398     -0.87983735906629     -1.20681531422573
  F           2.17333079866325      1.16628815690463     -0.16409813245184
  H           1.33428895532293     -0.35798363348076      0.84454765092484
  C           1.10540730570210     -2.27925950509324     -1.12703088969476
  C           2.70181889677591     -0.43655087315120     -5.13511859245192
  C           3.00232959327076      0.53302269740029     -4.28878873340032
  C           2.64935337141854      0.55827613482400     -2.83274247966357
  O           2.02854527661302     -0.66812212868566     -2.47507752527742
  C           3.06431842560418     -0.43259863890329     -6.57966234816305
  H           2.15712673423409     -1.30527436067979     -4.79390737550953
  H           3.54333766244211      1.41169500179751     -4.61205141841721
  H           1.96741051412694      1.39564900969583     -2.63110294298237
  H           3.55712530741898      0.70469083909296     -2.23190511292094
  Br          0.16370798462382     -2.72125967914135      0.49389339787950
  Br         -0.09443827035657     -2.58733486223111     -2.62810990826204
  Br          2.62533300400778     -3.51126646095724     -1.31323290827824
  H           3.68535893676817     -1.29731651489527     -6.81045131953596
  H           3.60372997828000      0.47219527076096     -6.84785079402945
  H           2.16418952084037     -0.50361475588802     -7.18898799943642
