24
Coordinates from ORCA-job NEB_reactant E -36.565575506920
  C           1.57300448640440     -0.14360539416264     -0.02493006245792
  C           1.24616630011675     -1.43487769851449     -0.07159208516297
  O           1.70608881233824      0.70382214494444     -1.11269714215550
  H           1.73596890482606      0.30675024342817      0.94415040308186
  C           1.11287057173469     -2.23815553370730      1.19642303222839
  C           3.59558332527161     -2.52537935373440     -3.51547952460706
  C           2.95078945636215     -1.91431757228410     -2.53728615650010
  C           1.45981960758106     -1.81451981000253     -2.43421894117580
  O           0.98667327015087     -2.21870241547224     -1.16301792702467
  C           5.08459492522675     -2.61200976763560     -3.62770755298081
  H           3.06801449525867     -3.00506028926046     -4.32845954324054
  H           3.50077080039969     -1.44670270185893     -1.73276841334601
  H           0.97592059951633     -2.49159452413995     -3.14336196394513
  H           1.14947591918232     -0.78485418955483     -2.64795159797782
  H           2.19903947385472      1.48433509463323     -0.84483942900725
  C           2.36545561740120     -3.08263738937143      1.43264925673189
  H           0.25112998486101     -2.89826043546458      1.08781805849180
  H           0.94216775796457     -1.57513290940890      2.04406647072920
  H           2.54028201727594     -3.73388149324437      0.58016418172881
  H           2.24711468599700     -3.69679969734217      2.32209385139656
  H           3.23583948283369     -2.44373471244247      1.56392788235132
  F           5.72259759773841     -1.97156695705839     -2.59541366345514
  H           5.43609064335543     -2.14192004484084     -4.55533233232542
  H           5.41934126434843     -3.65719459350523     -3.60533680137767
