24
Coordinates from ORCA-job NEB_product E -36.575043050940
  C           3.27864749836281     -1.04431152563634     -0.47920509049356
  C           1.83449125231244     -0.98265317883764      0.03119002484386
  O           3.78410144502623      0.25194804449521     -0.60215426602953
  H           3.92718308747985     -1.55303853237975      0.24142991501263
  C           1.37350835720763     -2.03229429420614      1.01059401871039
  C           3.31468873497591     -1.82966303887459     -1.83042636134056
  C           2.15466379496789     -1.47154853974855     -2.71343745263248
  C           1.26970476247653     -2.34425425391818     -3.15493624455634
  O           1.12941614134290     -0.06429472406635     -0.30846609410764
  C           4.63684225093795     -1.55659347910345     -2.56278546161998
  H           3.28662307198213     -2.89907711520381     -1.60581474764614
  H           2.08702041306177     -0.43018718318458     -2.99381360748633
  H           1.32184967606217     -3.39103519215473     -2.89937082734926
  H           0.45454897563034     -2.05050756089911     -3.79253138248161
  H           3.10324973436304      0.79898192474691     -1.02015364122788
  C           1.71589636263340     -3.47305131157718      0.64864310669129
  H           0.29370304924406     -1.92200463530170      1.12922650439222
  H           1.84224863417124     -1.77789186188058      1.96666287526164
  H           1.28228999927260     -3.73559073364658     -0.31253204171021
  H           1.30448618120262     -4.14147119913419      1.40126222809783
  H           2.79045867366997     -3.63089673513174      0.60892232469426
  F           4.62808648059186     -0.34014983794155     -3.18943014857772
  H           4.79529232751307     -2.30580252000657     -3.34596250389326
  H           5.48019909551159     -1.54641251640879     -1.86521112655161
