23
Coordinates from ORCA-job NEB E -32.474882447970
  C           0.38060737450387     -0.03571953293366     -0.62370212925023
  C          -0.63065460969439      0.93718552401373     -0.71605171429023
  C          -0.00388495875696     -1.49883333920498     -0.77350217177701
  H           1.31468747222878      0.20348833324942     -1.12581086407512
  C          -0.30270246377376      2.35567008547486     -1.08891523800446
  C           0.77321719699530      0.22259353532930      1.22888128498506
  C          -0.43820878271773     -0.01919376953358      1.88060898498618
  C          -1.53884309480652      0.81473087005601      1.52345919878780
  O          -1.74538262967020      0.71689459096373     -0.06481423223108
  F           1.80091395895492     -0.61391282160886      1.50491528253670
  H           1.16305084881059      1.23746615929760      1.16299923607225
  H          -0.62576569854754     -1.02067874115408      2.23550026404049
  H          -1.37423499604916      1.88579590548283      1.63364469661059
  H          -2.50370049556728      0.51240100929055      1.91290311670563
  C           1.19324822859562     -2.43712884402180     -0.85813360263838
  H          -0.57666553309012     -1.58175830684777     -1.70237948650827
  H          -0.66738603216289     -1.80154763025596      0.03649764282724
  H           1.84474248318204     -2.14891004268241     -1.68083861197733
  H           0.85190118639067     -3.45467408571081     -1.03438954481087
  H           1.77256104874996     -2.42651964481616      0.05939811101133
  H          -0.04470774652474      2.92594572390504     -0.19087518350174
  H          -1.17383437538719      2.82806927547555     -1.53684355886539
  H           0.53104161833674      2.39863574623144     -1.78255148063317
