23
Coordinates from ORCA-job NEB_product E -32.519881224910
  C           2.43547663773167      0.39793938430347      1.04809854610455
  C           1.22366829488845      1.25493263207445      0.70308757534110
  C           2.25073127869609     -1.02172566414948      0.49766346283512
  H           3.33707258387232      0.84533346253542      0.61701268997230
  C           1.54357219045699      2.68316994927549      0.34659997537500
  C           2.60221719703554      0.45458549555558      2.58691033197464
  C           1.65277572235567     -0.44162748546662      3.31869498688557
  C           0.47452574473654     -0.04904006776717      3.76264119218514
  O           0.10177297577858      0.81966007362635      0.71939797964356
  F           3.90534198755941      0.11340842746492      2.90717914438629
  H           2.48777271806857      1.49474462815653      2.92403160327079
  H           2.00071627988758     -1.45459778505606      3.45967634126024
  H           0.12015590453236      0.95925248071685      3.62841320840390
  H          -0.19350964491497     -0.72781791043475      4.26285441100770
  C           3.48996154236094     -1.89183182703255      0.65958081040071
  H           2.01059214118407     -0.93590179208338     -0.56547257718393
  H           1.39159628124418     -1.48117186372809      0.98818238758447
  H           4.34459748303039     -1.43340027000957      0.16620039645212
  H           3.31913331266259     -2.86842219650989      0.21292811344382
  H           3.74196848065467     -2.03279118361249      1.70631604035434
  H           2.24545504599781      3.11000664615623      1.05894084236039
  H           0.63498398680415      3.27842101226663      0.31302283128420
  H           2.01172185537639      2.69857385371812     -0.63656029334202
