23
Coordinates from ORCA-job NEB_reactant E -32.502776331480
  C           2.59577086236964     -0.20493057354448      0.46001589945324
  C           1.90350490836173      0.81999176527482      0.94346687505851
  C           2.22505242434421     -1.64915729457492      0.59727186864535
  H           3.49426739670835     -0.00188761073094     -0.10448443593856
  C           2.28157637273607      2.25783047344388      0.74455166592698
  C           2.42402253395777      1.54294095427781      4.52506812074673
  C           1.30696048710808      1.51565530772814      3.82560615062284
  C           0.87541307993827      0.32552399541053      3.02166108125757
  O           0.71790655282201      0.62964353045696      1.64912789618226
  F           2.79731458105453      2.62486136057279      5.22871070372795
  H           3.13338852926484      0.73348322334128      4.62406504769235
  H           0.66752112297204      2.38511168767939      3.78186767068537
  H          -0.11802818906446      0.00326449717443      3.35067621312212
  H           1.58738223678228     -0.49862752119603      3.15996461923688
  C           2.30852723728801     -2.36572823919843     -0.74879363807377
  H           1.21096355296132     -1.72978040201562      0.99185822117693
  H           2.90864424001670     -2.13647287588406      1.30126305441065
  H           1.62993502726680     -1.90494778286578     -1.46262360429471
  H           2.03677929208997     -3.41301417862907     -0.63878683861943
  H           3.31871231275676     -2.31141013807252     -1.14908666597888
  H           2.53607625491110      2.71810015520506      1.69924409556571
  H           1.43295223941405      2.79936587129395      0.32997936892550
  H           3.12815694393993      2.34538379485283      0.07087663046840
