15
Coordinates from ORCA-job NEB E -31.505967458120
  C           0.30789024812228      0.46310363260582      0.77467045915104
  C           0.83230674673796      0.35501479424326      2.04756681194852
  C          -0.89766478242643      1.18293275361526      0.53982932641795
  H           1.09828657010964      1.70349874397608      0.74063057733136
  Cl          1.40141297111467      2.60437468688488      2.03959492736618
  C           0.42860368562081     -0.82343901364807     -0.07569171325437
  C          -0.10026599462665     -0.57708817397052     -1.45629408813784
  C          -1.23835476972962     -1.07481403848725     -1.89937970513764
  O           1.30212653815186     -0.18381214819728      2.94798107546232
  F           1.76646085950048     -1.15411982141155     -0.13962858636582
  H          -0.07468982854956     -1.67296175713260      0.40664455580306
  H           0.52947915083158      0.04902042807769     -2.07178565856436
  H          -1.86656600537930     -1.69835682788094     -1.28509639864071
  H          -1.59134169851247     -0.86827625181555     -2.89383991939245
  N          -1.89768369096527      1.69492299314076      0.32479833601275
