15
Coordinates from ORCA-job NEB_product E -31.583654394050
  C           2.31694936256391     -1.30086853409031     -0.73727801627265
  C           3.29633937856853     -1.40503680579188      0.41842943443917
  C           2.30608945445929      0.02844553642426     -1.31352224950403
  H           1.31634251045927     -1.50584021857901     -0.33423959408157
  Cl          3.29164600071178      0.04418590288186      1.41275160337583
  C           2.63376698940896     -2.36028119405705     -1.82666105225511
  C           1.55797069181045     -2.39439186531125     -2.87056279273398
  C           0.62408494227711     -3.32443463967321     -2.92158117666333
  O           3.97367948109284     -2.33662379109423      0.68295696222130
  F           3.83728384718375     -2.03539339613596     -2.40816754689036
  H           2.77465009207635     -3.33630225273249     -1.34494747167844
  H           1.60069029353572     -1.58456547906983     -3.58490661212376
  H           0.58811115840048     -4.13593826859192     -2.21280675134856
  H          -0.14255853793569     -3.31135879453968     -3.67573786808214
  N           2.28895433538728      1.05550380036071     -1.80932686840237
