23
Coordinates from ORCA-job NEB_reactant E -65.195967757630
  C           1.96733893247028     -0.53717768717812      0.04575310450018
  C           1.21340624196319     -1.62564953021632     -0.14988988226446
  C           2.48643487082033      0.43111287727606     -0.95211180388164
  H           2.22360747243744     -0.29019191107541      1.06470357167675
  C           0.69380524238967     -2.42753679666325      1.03387447190289
  C           3.04069795184320     -4.45809350341007     -2.65637654768453
  C           2.74104670501909     -3.33685849976950     -2.02306364214537
  C           1.59798283886661     -2.44674657401893     -2.39475717250966
  O           0.74675003298706     -2.18535996630531     -1.28102658550887
  C           4.20597373901345     -5.31707546201323     -2.27363055782928
  H           2.48082208195959     -4.83529462866061     -3.49858382105942
  H           3.33545847810345     -3.00775656919559     -1.18094991864220
  H           0.93798393444907     -2.93018041827117     -3.11743754812671
  H           1.98734784173797     -1.52017167652635     -2.82895920415485
  Cl          1.28346016173707      0.82324684506550     -2.20786405620140
  Cl          2.91055642295309      1.94984968686460     -0.12704320897515
  Cl          3.98637375799288     -0.17447797576735     -1.74824635150815
  Cl          1.50226664212856     -4.02565628039592      0.99673941192998
  Cl          0.97809218073289     -1.69466502280263      2.60813069046122
  Cl         -1.05421371618273     -2.66562873689992      0.82810088972334
  F           4.87795818343789     -4.86100739488964     -1.21004048594100
  F           3.82307918565600     -6.57097221427541     -1.98023308014100
  F           5.09727081748396     -5.42250856087142     -3.27528827362064
