23
Coordinates from ORCA-job NEB_product E -65.205547571860
  C           2.21198799349350     -2.14699943685879     -0.69979392300149
  C           0.87045668668330     -2.70718762643838     -0.21251213923661
  C           1.93661317547807     -0.69157828660272     -1.11054495931033
  H           2.94564875275018     -2.13565750849902      0.11103727324816
  C           0.68289168595362     -2.90516742853641      1.30593175040515
  C           2.74730483716346     -2.98551862684752     -1.88172243250318
  C           3.99276249867129     -2.39623094421706     -2.49012533334092
  C           4.09430922835537     -2.07787302397503     -3.76558818273239
  O          -0.01145735786876     -2.99287437587762     -0.96258450078338
  C           3.09195458778147     -4.39843573820006     -1.40104753489605
  H           1.96292579872524     -3.09395183431969     -2.63808146783613
  H           4.82860729984479     -2.29067206328436     -1.81322270204414
  H           3.27020937330873     -2.18991456942375     -4.44974006057999
  H           5.00805208161389     -1.68295947256934     -4.17213231505630
  Cl          1.09416371621422     -0.58645594447641     -2.66130067583190
  Cl          0.89345719611954      0.07223418114467      0.12552537982346
  Cl          3.44053359925372      0.24213682896855     -1.20155856943140
  Cl          0.78343052452487     -4.66532572640102      1.58033686239204
  Cl          1.87976312765418     -2.10538249622394      2.32803758966513
  Cl         -0.93609596833422     -2.33043344622942      1.74580850092277
  F           2.00897281421748     -5.12599782700092     -1.10342371019760
  F           3.75951636678464     -5.08338557720959     -2.33481777135229
  F           3.86159198161139     -4.38956905692218     -0.30248107832261
