18
Coordinates from ORCA-job NEB E -33.782843557750
  C           0.93661434172031      1.24223365470541      0.08825981654722
  C          -0.06941226195288      2.11454359020890     -0.29265037357476
  Br          2.40949295955538      0.94840680297103     -1.05628455388327
  H           1.18543698816464      1.18395247445417      1.13561407110371
  F          -0.07619445976132      2.48234613637955     -1.61246347058312
  C          -0.20963358673103     -0.65158784455994      0.13891184250843
  C          -1.46885674928076     -0.19378792132848     -0.24650408398656
  C          -2.15355430328163      0.71345011984762      0.53430198020951
  O          -1.10223928768291      2.31648930723005      0.35249492457622
  O           0.48571985368900     -1.44053720129440     -0.68216409204892
  H           0.01151861052313     -0.73136398699416      1.20126223199162
  H          -1.72291764926899     -0.30051937358407     -1.29210370587858
  H          -2.01039386933959      0.72234959867153      1.60315616256496
  H          -3.08939530615333      1.11661740041401      0.18641251523906
  C           1.51653142086947     -2.22422643561189     -0.11171548979333
  H           2.09762990277561     -2.61588146876740     -0.94350794995012
  H           1.09149676075313     -3.05216334793097      0.46390298008862
  H           2.16815663540178     -1.63032150481096      0.53307719486931
