18
Coordinates from ORCA-job NEB_product E -33.824630380020
  C           1.93664404707747     -1.92296298419789      0.70476039364183
  C           1.50501431811213     -1.61493115434033     -0.70375530624515
  Br          3.84655822838682     -1.66499502935069      0.93562896772253
  H           1.42910590114861     -1.24602976694336      1.39581058482369
  F           2.48955216338666     -1.74094258749385     -1.60379995057676
  C           1.54898001018427     -3.38335035450480      1.02724697990628
  C           0.05808291187539     -3.48150983532253      1.21864238339551
  C          -0.50500793409518     -3.78522305241687      2.37262812881120
  O           0.41749858625094     -1.30585707538286     -1.04609171632529
  O           2.01076041346439     -4.15582033238936     -0.05905900657692
  H           2.06001918071536     -3.68898588534621      1.95674694706350
  H          -0.52914579447002     -3.29501705599983      0.33091950748041
  H           0.07905576657863     -3.97781935240102      3.25849261243419
  H          -1.57360072859001     -3.85062902438730      2.48007688500994
  C           1.98678359211032     -5.54286063741998      0.17405334775162
  H           2.60852546813554     -5.80467206764795      1.03804143016044
  H           2.39416030101987     -6.00421341378571     -0.72230986718417
  H           0.96631356870883     -5.90158039066946      0.34496767870714
