18
Coordinates from ORCA-job NEB_reactant E -33.818217312990
  C           2.30662367230369     -0.44422336119905      0.50577541087664
  C           1.33600475077007     -1.34618029429130      0.39841295670865
  Br          3.28361713345788      0.15151032505828     -0.98557050664339
  H           2.56139480480936      0.00263031400199      1.44795992567327
  F           1.02481927927946     -1.89966689372489     -0.78402944579108
  C           1.80465934962180     -4.31233669266840      1.42348141024563
  C           0.54455241798248     -4.16094879225312      1.03169424508236
  C          -0.22897248553254     -2.89303524894736      1.25652423437881
  O           0.59495844128464     -1.74097746935589      1.43496914101137
  O           2.60966730639417     -5.38136556238971      1.27085176644579
  H           2.33601083060139     -3.52223823540275      1.93900579542602
  H          -0.00112835499304     -4.93648768174634      0.52005460009875
  H          -0.80926296294674     -2.94078373486259      2.18374074502420
  H          -0.92168675247799     -2.73002286923028      0.42157547489799
  C           2.08407950667364     -6.50744169964264      0.60586639587718
  H           2.88685246605720     -7.24155877690020      0.57858643683082
  H           1.78188033547894     -6.25651611503102     -0.41540510322504
  H           1.22673026123558     -6.92125721141472      1.14560651708205
