18
Coordinates from ORCA-job NEB E -38.680126422520
  C           1.04313080772480      0.35436630771938      0.36305603127875
  C           0.18293290597559     -0.23234396584369      1.29021642096099
  C           0.83859054427503      1.77754457705127     -0.05686606179413
  H           2.09655038062764      0.12762207927514      0.48051288847953
  O           0.70098985661153     -1.21911523832869      2.06362567221145
  C           0.39442398079201     -0.65528469847228     -1.27503516342775
  C          -0.96186246677899     -0.40717483105686     -1.24584060899431
  C          -1.70342865922699     -0.88734968620726     -0.12450030186543
  O          -1.09958230247613     -0.13509758144988      1.19969583511106
  H           0.99235155853919     -0.22032862442527     -2.06148001352398
  H           0.76453949310344     -1.60485887545099     -0.91326924254104
  H          -1.35696463327490      0.43952542979679     -1.78546295485893
  H          -1.53650168168299     -1.92731214971103      0.14804674989905
  H          -2.74601617006573     -0.60153581344253     -0.06967577082344
  F           1.45695507453971      2.06217074174022     -1.21669673454251
  F          -0.43066395678258      2.15903809747950     -0.20083533099640
  F           1.37836147890804      2.62020118702677      0.85098126692381
  H          -0.01380621080866     -1.65006695570058      2.55352731850326
