29
Coordinates from ORCA-job R E -48.568931214580
  C          -1.47940318426975     -0.47872221633271     -2.76166988983220
  C          -0.20460480922649     -3.06399399399576     -1.86813275101532
  C          -1.50368282866426     -2.77633024023807     -1.83912983712902
  C          -2.09253297337906     -1.48410129791521     -2.11974337887978
  C          -1.45561267380890      1.60321129017662      0.04833001242929
  C          -0.37336279851474      0.85534688841690     -0.03939155462553
  H          -2.20386475866955     -3.55204770554723     -1.55128610443633
  H          -3.11213574647942     -1.36243933690241     -1.77843404753884
  C          -2.00946710938355      0.84750230172373     -3.01126195763702
  H           0.15670132324520     -4.05148137947751     -1.63657862112675
  H          -0.47321026429114     -0.63654436686317     -3.12623998115128
  H           0.54160416006104     -2.32778288678479     -2.11330583576165
  H          -2.36887975717377      1.21173692109358      0.45858641741216
  H          -0.32518090472733     -0.17414414861835      0.27815376779120
  H          -1.47121437307078      2.62667648445255     -0.28587203201575
  C           0.91991669332934      1.36395588529685     -0.59752388872597
  C          -3.30238243398743      1.24092876469065     -2.65266337065364
  C          -3.73631818956779      2.53184765170349     -2.87908815355186
  C          -2.89433493481856      3.46221069143631     -3.46776354389589
  C          -1.61348350707174      3.08717084137224     -3.83768302094410
  C          -1.17837596725910      1.79548238387905     -3.61570199326218
  H          -3.97601372874430      0.53081984207417     -2.19827031270651
  H          -4.73910611947150      2.81791931574535     -2.59539919023625
  H          -3.23604153261593      4.47219183835683     -3.63914621314166
  H          -0.95298202018641      3.80555958269554     -4.30021616075675
  H          -0.17615712281381      1.51129983664159     -3.90261173229287
  F           1.37472979183133      0.59420877812577     -1.60209776853140
  F           0.84717226645239      2.61092475971204     -1.07749642446790
  F           1.89553350327601      1.37030351508193      0.33161756668383
