16
Coordinates from ORCA-job NEB_product E -37.054589705150
  C           1.83739181848747     -0.45386674706848      2.02154467918489
  C           0.51306197964395      0.11227108197496      2.47434029569986
  Br          1.58214056194817     -0.97819913157463      0.14607145216146
  H           2.61139814001428      0.31706632369991      2.02702141750818
  F           0.42733962928280      1.42368132611085      2.18963268242863
  C           2.22445682663541     -1.68110656754218      2.83667121034903
  C           3.55513606713430     -2.25138270599727      2.43846871229613
  C           3.75902913170493     -3.53899921720843      2.23662145201100
  O          -0.38683472713159     -0.46900616601478      2.96498734025029
  N           2.30375807048394     -1.27017003322751      4.28330540477305
  H           1.44610029846688     -2.45085438827544      2.77877499002814
  H           4.35598661943640     -1.53122706659674      2.34089060378384
  H           2.97008843846902     -4.26520862541708      2.33625304266525
  H           4.72789681577052     -3.91496557796097      1.96059530867124
  O           2.51641550270784     -2.13905045484093      5.07969357755444
  O           2.15923482694569     -0.09528205006129      4.51832783063454
