16
Coordinates from ORCA-job NEB_reactant E -37.041455193870
  C           1.21578636368870      0.02607782536791      0.59043045064649
  C           2.17449213977233     -0.71953158017402      1.12647661656881
  Br         -0.38181477694441     -0.76452750506984      0.00355817099337
  H           1.30876600845730      1.08757957846425      0.45907470490520
  F           3.30949098080829     -0.13142922596612      1.55392734935802
  C           2.06816333794828     -1.76349557422717      4.11453586575057
  C           3.03262836396447     -2.43711651125268      3.50132445125220
  C           3.12855523151773     -2.68186602359525      2.03421077527261
  O           2.12302069507801     -2.04640832982107      1.26854166046749
  N           2.08932678063355     -1.58604314062325      5.54061728109520
  H           1.21023972242701     -1.31081884515979      3.64091753562282
  H           3.83723360929718     -2.85309720383358      4.09534859604708
  H           2.99717646039321     -3.75051952136533      1.83413672852934
  H           4.12847028047429     -2.38944114858483      1.68504163586496
  O           3.00383296769098     -2.07545460245270      6.16526694807342
  O           1.17663183479307     -0.94980819170654      6.01649122955243
