17
Coordinates from ORCA-job NEB E -29.459772768800
  C           1.02029035038782      0.43928796874755     -0.38341847956106
  C          -0.00398929580430      1.37637482149983     -0.44696718070350
  C           1.09623755103780     -0.61974060333200     -1.45354832798984
  H           1.99281185547057      0.78853304544558     -0.05127240066885
  I           0.28434124743988      3.19817308039675      0.70221447011137
  C           0.34131540032088     -0.56171668476108      1.17146168650836
  C          -0.95303615391428     -0.88788606093603      0.79426376997865
  C          -1.85725514399697      0.18464741156821      0.54197195819381
  O          -1.21432831262183      1.04630513630448     -0.67032343466604
  F           1.23399308335410     -1.56267699911309      1.29374830625762
  H           0.54056552015222      0.20173862034868      1.91922907862726
  H          -1.10853726591948     -1.83494618524419      0.30012175979700
  H          -1.92377259757185      0.94937813852236      1.31405416197903
  H          -2.82821670421645     -0.09025510938379      0.14896555436079
  H           1.57392771522763     -1.51947623821012     -1.07323947509795
  H           1.69949402785371     -0.24199381250826     -2.27815304959828
  H           0.10615872280053     -0.86574652934488     -1.82910839752838
