17
Coordinates from ORCA-job NEB_product E -29.502620735960
  C           1.60609707793923     -0.86517892720103      1.37250933736817
  C           0.74925836530727      0.30543434800602      1.01615045315861
  C           1.40677358649609     -1.99210060588711      0.36023234969190
  H           2.65725786571583     -0.55638456514291      1.38725707685159
  I           1.34459267177931      2.13257809851552      2.05229745211393
  C           1.25813188233642     -1.32828107534537      2.81208509387846
  C          -0.15030150578240     -1.82820440774469      2.92684041706574
  C          -1.16097891029480     -1.07015655149807      3.30578164665912
  O          -0.17117290874256      0.34699625348316      0.28161094331538
  F           2.13981300903662     -2.33445117631814      3.14185952783374
  H           1.44891696877133     -0.51434640687914      3.52401350129226
  H          -0.28469774807260     -2.86905430903630      2.67148628118707
  H          -1.03143221758466     -0.03450932445955      3.57612564064618
  H          -2.16435437512580     -1.45369869720557      3.35895454567103
  H           0.35160479675394     -2.23312410019304      0.25829826682575
  H           1.94662946482118     -2.87566970165510      0.69122555419668
  H           1.78736197664559     -1.69294885143867     -0.61342808775561
