25
Coordinates from ORCA-job NEB E -35.892874481600
  C          -0.44161497219726     -1.01944648596781     -0.71596429279821
  C          -1.67593547123322     -0.48098460218610     -0.33065563112295
  N          -0.14337596779958     -2.32364378621119     -0.36600011358856
  H          -0.02159846264731     -0.71187832918194     -1.66404367212219
  C          -2.17589716496552      0.77141641021064     -1.02422619991849
  C           0.67289279455375      0.17263601365533      0.63109883253971
  C          -0.22778409334313      0.73322980413641      1.53051977871730
  C          -1.13905267594409     -0.08348153070135      2.19524572592722
  O          -2.17138037793639     -0.74107309530640      0.81815555568431
  C           1.53053845483672      1.06631092987564     -0.22845484878824
  H           1.15554358932291     -0.74269199676231      0.95240582895148
  H          -0.48821688214547      1.77688065918764      1.39785106537535
  H          -1.90371158762260      0.36500177618981      2.80927323634194
  H          -0.81762602174744     -1.05986791801783      2.52743763346217
  H          -0.60286146234482     -2.62315658664820      0.48289186351221
  H           0.82597582573000     -2.59416598444013     -0.42703106458482
  F          -1.53291250191161      1.01078819699319     -2.21251584703638
  H          -2.00885877825645      1.64738099162879     -0.38164549657885
  H          -3.24526204806170      0.68350836931495     -1.24077810375864
  C           2.66988848671696      0.32217237871228     -0.91523847086630
  H           1.95320157321266      1.85216557482523      0.40543161651752
  H           0.90977572091216      1.56136063027746     -0.97861951792657
  H           3.31079494721808     -0.15931651981955     -0.17878407578688
  H           3.27704320908608      1.01515527233722     -1.49271046844789
  H           2.29043386656725     -0.43830017210175     -1.59364333370421
