25
Coordinates from ORCA-job NEB_reactant E -35.932013965130
  C           1.61081862172805      0.11716447117113      0.05045507693136
  C           1.51612532948085      1.40922774951113      0.37429581740248
  N           1.55024452185797     -0.92130544309897      0.96407596560915
  H           1.80401883791610     -0.16448564355880     -0.97267654862349
  C           1.66520856073177      2.53477861271914     -0.61488688228771
  C           4.49018347994448      3.08794566199382      1.78977379467974
  C           3.21735154369178      3.15600449568673      2.14411680029580
  C           2.38301835501278      1.96677583327191      2.51154423715372
  O           1.23538205298565      1.81664461396000      1.67464280889136
  C           5.33211413019315      4.25827331986998      1.39480912657895
  H           4.99042879583557      2.12752094721980      1.76502009590618
  H           2.69705446348130      4.10471006091161      2.16328472279494
  H           1.96729091729588      2.09460279218969      3.51654911672724
  H           2.99093350169333      1.05350233249930      2.48288028283622
  H           1.13055223407159     -0.64918253742851      1.84295220124046
  H           1.17540878746070     -1.78401268770942      0.60084935252474
  F           1.72288567736679      2.07241315299488     -1.90537906864580
  H           2.58809795681789      3.10257842477635     -0.43678781247123
  H           0.80517508403454      3.21230178653790     -0.54949609564690
  C           5.89031964174371      4.08199208322839     -0.01761432848590
  H           6.16693517483131      4.34885875802575      2.09590281375737
  H           4.74317365696561      5.17571141081722      1.44950688843774
  H           6.49086652546300      3.17735017297654     -0.08027431281416
  H           6.51447203255883      4.93039131323335     -0.28772310369294
  H           5.08164011683736      4.00603831820109     -0.74122094909930
