25
Coordinates from ORCA-job NEB_product E -35.930636811380
  C           2.93390596637752      1.50931451780442      0.48986779661501
  C           1.67803571575306      2.25198015582024      0.03287145385835
  N           2.60149180402797      0.22507478796450      1.08317367398629
  H           3.58026983792378      1.31578143427216     -0.37259041475683
  C           1.77293475851557      2.82887037104150     -1.37412773719703
  C           3.72879491154367      2.33076669346818      1.54012622285095
  C           2.85813851354864      2.65766114080481      2.71895575402442
  C           2.95233856357107      2.06010093622001      3.89225211529032
  O           0.67891780867649      2.31816579688688      0.69731529447701
  C           4.33574291893873      3.62089240988412      0.97404761504499
  H           4.53616833194761      1.67011819525689      1.87221965442580
  H           2.11924302265330      3.43051484033956      2.55701440784798
  H           2.31046470261381      2.32071182292586      4.71641925285945
  H           3.67706623066270      1.28339311499788      4.07600518418149
  H           2.05952638254635      0.37412192208228      1.92932804649012
  H           2.03711845481141     -0.32935231565754      0.44796685807963
  F           0.65811199041573      3.54228490265316     -1.70962642797986
  H           1.86819292637489      2.01047655970071     -2.09868470900159
  H           2.63352846433155      3.50034446289166     -1.46342361523243
  C           5.42411109610351      3.38451310056559     -0.06711814270606
  H           4.77390090738851      4.16803798761243      1.81236339857954
  H           3.54556847683634      4.25015114408098      0.55866604122047
  H           6.20487804790462      2.74779048233335      0.34203728556978
  H           5.87325822412190      4.33158040606784     -0.35715653264302
  H           5.03239194241125      2.90920512998252     -0.96330247588479
