23
Coordinates from ORCA-job NEB E -44.588147968650
  C          -0.60065488232376     -0.22888508415629     -0.14853174804551
  C           0.32736505455402     -1.27884829480557     -0.06235700510142
  C          -0.71941172558255      0.52287301677304     -1.46542473153148
  H          -1.57222609808506     -0.44363461627867      0.28878988438911
  C           0.01843483585083     -2.46155420081164      0.83452793009610
  C           0.17194965767917      1.08593247326930      1.03764617957041
  C           1.47708053469258      0.69482463725120      1.34138635494603
  C           2.26407181511090      0.26221400347855      0.23072838347599
  O           1.58480047285775     -1.07644877607651     -0.32166300296443
  F          -0.69362714517919      1.19692660196619      2.06610303230901
  H           0.02014589297009      1.91436894058276      0.35268969160444
  H           1.63827900831429      0.21083119782088      2.29465139293991
  H           3.26652690947700     -0.08077533934313      0.46015065263057
  H           2.24685873057323      0.91329632764368     -0.64131890729573
  C          -1.87359688716229      1.51766929327553     -1.47654922700388
  H          -0.90991425898557     -0.22875198486344     -2.23618144738731
  H           0.21830147272418      1.01574792707008     -1.72584361003602
  H          -2.81297311807678      1.00517487736371     -1.28455019385148
  H          -1.93776236903950      1.99740343163536     -2.44997929047389
  H          -1.75458662601281      2.29437844765654     -0.72491960762276
  Cl         -0.10511340802579     -1.96655995643613      2.56180194608480
  Cl         -1.53567629756286     -3.17867498461909      0.36896378185873
  Cl          1.28172843123212     -3.68750793839634      0.69987954140878
