23
Coordinates from ORCA-job NEB_product E -44.631292272400
  C           1.65137912351403      0.81158062587738      1.29226745372620
  C           1.98239412542589     -0.64934017643277      1.46898793515904
  C           2.04126254455098      1.24512103226918     -0.12833339506885
  H           0.58266379383789      0.97335203556389      1.45421212407603
  C           1.12594829856053     -1.47584857884138      2.45978253789879
  C           2.40245219754595      1.64763299500162      2.36306577105084
  C           3.85489315735630      1.30042152996899      2.46526265061115
  C           4.81256973993279      1.99125961109608      1.87662577032913
  O           2.88590108166163     -1.19861850281713      0.90736144292992
  F           1.78701474278229      1.44572257334212      3.58126039529100
  H           2.26385969294921      2.71106129881498      2.13477791240941
  H           4.07381396189986      0.42479810315741      3.05860929027619
  H           5.84503573245546      1.70042877482007      1.95511832844913
  H           4.60535659324126      2.87223528007277      1.29091772831118
  C           1.43241509454577      2.58355519106190     -0.52492532898510
  H           1.69235681869422      0.47794886904994     -0.82167657298230
  H           3.12876131260380      1.28219683590505     -0.20347446401892
  H           0.34945410588971      2.55598445609572     -0.42889176407726
  H           1.67676068785955      2.80399711093822     -1.56065598987121
  H           1.81186333700773      3.39597278304205      0.08912756335056
  Cl          2.08819366679365     -1.59086836753222      3.95569958253018
  Cl         -0.45840388034823     -0.80319439155714      2.84011540605014
  Cl          0.90615407123971     -3.10699908889673      1.78936562255476
