19
Coordinates from ORCA-job NEB E -39.363724795920
  C           0.93165775085812      0.22644647997444     -0.37817506076694
  C           0.13038213457439      1.04866481306680      0.46271345104357
  C           0.77095912721130      0.41896473511493     -1.84421917215288
  H           1.98616991723501      0.17159446868710     -0.11008477422273
  N           0.63739905383225      1.44320059091594      1.67398395270212
  C           0.18888164894697     -1.48652842174299      0.34014979226206
  C          -1.18124387571770     -1.40067080693684      0.10950624049157
  C          -1.87807605557205     -0.35865147097064      0.76163393816925
  O          -1.13762715998090      1.10360654430234      0.28809608703593
  I           1.24569788267913     -3.16669850926906     -0.41745594056947
  H           0.55110610879789     -1.27455927062741      1.33956797668601
  H          -1.60613435013703     -1.84290752761116     -0.77739399151170
  H          -1.70997865690990     -0.23865585485501      1.82722584680251
  H          -2.90297886603968     -0.18953657741797      0.46097033765580
  Br          1.39816413745527      2.31463300965228     -2.25653964188961
  Br          1.93041508912856     -0.71480390332781     -2.91359347311363
  Br         -1.01515413906954      0.30466583425079     -2.56210358829958
  H           1.62458923685288      1.61658160964920      1.75989091974857
  H           0.03577101585504      2.02465425714507      2.23582709992915
