19
Coordinates from ORCA-job NEB_reactant E -39.403602176890
  C           1.67704830627725      0.09014772750952     -0.04097741055201
  C           1.14292759175460     -0.59946367985437      0.99518315608818
  C           1.94660790209549     -0.57981991020543     -1.30875012823230
  H           1.92084797235228      1.13334918602340      0.05545271615245
  N           0.76571991334632     -0.01545342912284      2.17515433226054
  C           0.02898209758984     -5.11332455554780      1.42653400612386
  C          -0.28344491645983     -3.90602323423608      0.99876203034709
  C           0.13358943176996     -2.65674441884421      1.71458492210793
  O           0.92282867194122     -1.91038150751989      0.80192959932089
  I          -0.55659071535121     -6.86569359140849      0.43765990858702
  H           0.58975633134493     -5.29878748149938      2.32785171717403
  H          -0.82847366377958     -3.74680610095432      0.08018776708318
  H           0.71642645407568     -2.90149094789006      2.61336097976663
  H          -0.75557996403220     -2.07757209253043      1.99765507124374
  Br          2.63856118411907      0.65306556071181     -2.63490163075448
  Br          3.27651075254559     -2.06013208791822     -1.11998497941778
  Br          0.33214873842872     -1.43511700370531     -2.08173422036901
  H           0.80589071025113     -0.57986112256973      3.00882403039290
  H           1.07054320173074      0.93550868956183      2.30180813267714
