19
Coordinates from ORCA-job NEB_product E -39.422012121460
  C           1.63861153140252     -1.63067381300798      0.62446893694412
  C           0.98258665177428     -0.47268360154582      1.41472602069467
  C           1.37185039866043     -1.39561127185811     -0.85087283483401
  H           2.72442349354920     -1.58223722527577      0.76799592508776
  N           1.85096871982982      0.43887436022779      1.88854869707999
  C           1.11183126520484     -2.94577088151461      1.23202478135276
  C          -0.12057826545484     -3.51957346683987      0.63109400549223
  C          -1.26314722775401     -3.59662895030385      1.29002226161477
  O          -0.20727580257418     -0.42614348863262      1.60397677599676
  I           2.68533805793985     -4.47659950604932      1.23469726582535
  H           0.93961719520696     -2.75958856861947      2.29424060955891
  H          -0.03629196572941     -3.92109715800236     -0.36977432407399
  H          -1.36949277007447     -3.21348722004744      2.29104949601042
  H          -2.14266353946704     -4.01790596501104      0.83657057332433
  Br          2.33211499635172      0.24524034261274     -1.38029651643507
  Br          2.07883923287420     -2.82341391987991     -1.98045702119248
  Br         -0.49889255667349     -1.12075092466465     -1.30564709145748
  H           1.47438524128342      1.23651971815140      2.37659136941617
  H           2.82977534365021      0.44673154026091      1.65944106959478
