22
Coordinates from ORCA-job NEB E -38.826369309800
  C           0.62822272048135     -0.72049999874375     -0.05684665103282
  C          -0.74091401706023     -0.54408257702284     -0.40808914373584
  I           0.97434201025773     -2.66952520259618      1.07878753951642
  H           1.28301348393705     -0.83950033794131     -0.91561190055270
  C          -1.22183834626715     -0.56658633067516     -1.82145874551378
  C           1.07949631122908      0.48693985799803      0.85952905456550
  C           0.14377069500944      0.63109207527038      1.97438308508124
  C          -1.23974626360153      0.13598363738504      1.80333422492225
  O          -1.65458149306601     -0.22774614013173      0.51072599965993
  N           2.49219040778612      0.27450103979676      1.32217316794916
  H           1.15590728518737      1.34415951784361      0.17459351343380
  H           0.56060789701200      0.48197281806275      2.95930911462706
  H          -1.98461961200755      0.87632131015402      2.12050896108365
  H          -1.37627862051149     -0.74071215887536      2.45550496706952
  C          -0.82359254308390      0.71079754470013     -2.57230237896463
  H          -2.30838763875222     -0.65594972144019     -1.80768159300692
  H          -0.80379442190014     -1.43339642558696     -2.33723942872562
  H          -1.24168550253243      1.58519261971646     -2.08002115617457
  H          -1.20201995127467      0.67218016554293     -3.58984858250629
  H           0.25795979436666      0.81624111032991     -2.61168828466504
  O           2.67181542851009     -0.19151048471124      2.41504002145678
  O           3.35013237628042      0.57412768092468      0.52689821551291
