22
Coordinates from ORCA-job NEB_product E -38.882277315260
  C           3.04538842696911      1.94135364455326      0.09838418993441
  C           1.62899524260267      2.09757346741571     -0.44212248995291
  I           3.31026686682129     -0.18912079012614      0.40829954916262
  H           3.77147257699031      2.20835490846581     -0.67363443865182
  C           1.47034780815744      1.73323935282418     -1.89657481508257
  C           3.28692346068949      2.77043856981649      1.36046975305521
  C           2.56351826004632      2.29027921787091      2.58150320608414
  C           1.64047516113881      2.99625338320964      3.20418767021611
  O           0.73475524875931      2.52338993125965      0.23720764279739
  N           4.75541421448704      2.75503782370560      1.62030396434103
  H           3.01779333691989      3.80939946535094      1.13380220618851
  H           2.87189681706348      1.31855783548021      2.94196316693895
  H           1.32607695206753      3.96468188028946      2.85304286804224
  H           1.14329021082276      2.61621952397291      4.07868844101285
  C           1.66822830582201      2.99872008202453     -2.73823542323617
  H           0.45870064598265      1.35570574653592     -2.05058021431285
  H           2.18916840549819      0.97073477270739     -2.19683658481163
  H           0.95577193877574      3.76416889453899     -2.44039857145612
  H           1.51184692724644      2.76875464214901     -3.78857784465466
  H           2.67440488797198      3.39598340790648     -2.61973533580147
  O           5.23015298201340      1.73174519006125      2.04128575761060
  O           5.36301132315413      3.76372904998779      1.35795730257613
