22
Coordinates from ORCA-job NEB_reactant E -38.875184047420
  C           2.34888499505593      0.51932869813386     -0.16214778175450
  C           1.56439999404186      1.58484164775322     -0.28539187150588
  I           3.24933927245711     -0.39266056166666      1.52207975915764
  H           2.60145360355455     -0.02853065239117     -1.05196344687746
  C           1.09667581673569      1.98651631324974     -1.66797296717002
  C           3.67165673197659      3.35024546639352      1.38366144929689
  C           2.83404542018248      2.81627881465889      2.26568116754909
  C           1.42044158468534      2.43839665711524      1.97699096970461
  O           1.06699416956208      2.47103154530393      0.61545049405431
  N           5.01046314924533      3.70084659449278      1.74737592369166
  H           3.43998281044752      3.55159922683521      0.34928055781636
  H           3.17285514117533      2.65235350686108      3.28080713014970
  H           0.76397906082518      3.18235938915896      2.44708703734469
  H           1.18791853148901      1.46751820753086      2.42946245328994
  C           1.94087497976603      3.13789948105827     -2.21411605998445
  H           0.05756697219668      2.30847735337756     -1.58746201919133
  H           1.14926379693218      1.13396111591396     -2.34334698657854
  H           1.85337146484611      4.00988823260119     -1.57059736136284
  H           1.59659580374285      3.41130430648721     -3.20798582137718
  H           2.98740068053548      2.84823133542891     -2.28058757526244
  O           5.35562992651730      3.55136536319459      2.89889149818612
  O           5.71190609402937      4.13634795850886      0.85850345082361
