20
Coordinates from ORCA-job NEB_reactant E -37.892818865520
  C           1.96880549549593     -0.24940812262703     -0.37341063565062
  C           1.59731722392177     -1.34227925197828      0.30016278313643
  O           1.83912934240801     -0.06821430242377     -1.74397315580373
  H           2.37864035904148      0.58260639525295      0.18235030550757
  N           1.74390197650001     -1.42853438638844      1.68838362028691
  C           3.33187406445600     -2.52707145378799     -2.95942478655808
  C           2.78100383302380     -2.93035516265268     -1.82766973884427
  C           1.31528043279489     -2.83739500046729     -1.53502236628494
  O           1.06436504176834     -2.50886323246465     -0.18504072230496
  C           4.79954974559539     -2.59333464060829     -3.24715631321584
  H           2.75080163369689     -2.08133112712901     -3.75317926123830
  H           3.38567891423336     -3.34824737277291     -1.03380914507562
  H           0.85010516144625     -3.82159933343246     -1.66346317677530
  H           0.83474935329900     -2.11896961317358     -2.20745005884127
  H           2.60528078748296      0.41951369250309     -2.06415173120689
  H           1.15595025609133     -2.15506862910773      2.07246570385134
  H           1.63590277485774     -0.55153080852725      2.17457620670184
  F           5.30067394176456     -1.33659236881614     -3.42716816767765
  F           5.50782790427375     -3.13485605144451     -2.23013553108485
  H           5.03616175784853     -3.16446922995404     -4.16148382892177
