20
Coordinates from ORCA-job NEB_product E -32.013970786950
  C           3.16430083260561     -0.48247074227226     -1.46550241346013
  C           1.70064993060682     -0.63990992059173     -1.27780718258105
  I           3.83652321463188      0.92325077848459      0.03853830251386
  H           3.67381791003384     -1.42547581013820     -1.26166359624701
  Br          1.09049809290637     -2.37251506217768     -2.03700636306348
  C           3.43580435909913     -0.05079352126734     -2.92727298071077
  C           3.20137911467350      1.42026087633743     -3.11829358771431
  C           2.06753427654858      1.92609223973677     -3.56482982924799
  O           0.89858375836010      0.08340266312159     -0.81339594077812
  C           4.81619014573714     -0.50459015704792     -3.43061217339185
  H           2.69767923974707     -0.58701156712679     -3.53969455883953
  H           4.02420716837104      2.06963600416724     -2.85663774260420
  H           1.22867204354848      1.30428818182323     -3.83562125253000
  H           1.92617587785863      2.98665131058842     -3.67820036194289
  C           6.01717123553158     -0.03139072400987     -2.62190875309745
  H           4.91056478335431     -0.13988400824054     -4.45631317202374
  H           4.82404145006417     -1.59704806364711     -3.47091925970069
  H           6.02791619049100      1.04970710413663     -2.51367576643301
  H           6.93074321524889     -0.32542568188311     -3.13351326364974
  H           6.03554716058185     -0.47907389999335     -1.63137010449789
