29
Coordinates from ORCA-job NEB E -46.692659284580
  C           0.35629528660744     -0.18321436311044      0.95115366248811
  C          -1.02965491952322     -0.32452798824282      0.75723485292499
  C           0.88466454961029      0.55455928012984      2.14316786656283
  H           0.94079426572515     -1.08456455909447      0.79597086878036
  C          -1.51210450576628     -1.56844945749245      0.04362963638006
  C           0.79294924897247      0.97831954951290     -0.69945749594640
  C          -0.44372308901473      1.37118323894730     -1.20650421169400
  C          -1.39003474697754      1.95241716627823     -0.34701336046155
  O          -1.80564419800007      0.69393371243916      0.76700460270505
  C           1.67687298039124      0.15483042801391     -1.60627342044846
  H           1.31229380618222      1.68612654011325     -0.06744500113157
  H          -0.82074238410653      0.83170424677017     -2.06854069272367
  H          -2.37259676145946      2.17101811054908     -0.74263454895935
  H          -1.03811081053615      2.68257752990713      0.36862605733259
  Cl          0.07417230345786      2.06284796040262      2.55907142663278
  Cl          0.68245913945766     -0.55037556693278      3.56943422325046
  Cl          2.63371233847464      0.89124574291538      2.04082861978582
  C          -2.96760190707527     -1.87547863517666      0.37888904253321
  H          -0.87461782583222     -2.41748770836587      0.28959520710176
  H          -1.42435459070888     -1.37032726236259     -1.03281330423741
  H          -3.06341291298594     -2.13703171467523      1.42975367330784
  H          -3.33097666537755     -2.70487386832030     -0.22233723196635
  H          -3.58417917240938     -1.00147354069738      0.18668736105754
  C           3.07290067504744     -0.13018578488134     -1.07041749490639
  H           1.77594409053977      0.70985956694391     -2.54449887265111
  H           1.17443063831014     -0.78570374032941     -1.84588150287763
  H           3.57919473313142      0.79539298218111     -0.80971866763986
  H           3.66182227093762     -0.64019183961647     -1.82945581050643
  H           3.03924816292787     -0.76213002580579     -0.18805548469322
