29
Coordinates from ORCA-job NEB_reactant E -46.735078983560
  C           2.23570381506687     -0.11191079681573     -0.73939688688754
  C           1.48737161098064     -0.15260300639422     -1.85018571562709
  C           2.51973328726894      1.02937346608934      0.15777721710987
  H           2.69341565002747     -1.03337654674311     -0.41431643684902
  C           1.21646264139139     -1.47158053269497     -2.52720248653805
  C           3.70621839129906      1.41104268065711     -4.14152617897651
  C           2.38788726259711      1.51818663031607     -4.14256511114073
  C           1.59178076283578      1.96775612787100     -2.95403507697086
  O           0.82500531972716      0.87819118894415     -2.43103179781286
  C           4.52297057026483      0.90047903434716     -5.28322993989126
  H           4.26781463382395      1.69307816775421     -3.26012052361976
  H           1.80820794134953      1.22565118010087     -5.00810892913936
  H           0.83920314112210      2.70709364710378     -3.23935432104178
  H           2.25252341729005      2.39562170524687     -2.19720601901470
  Cl          1.19195056859951      2.20405900521755      0.26122590208819
  Cl          2.81830290608802      0.41842014779388      1.80942775405317
  Cl          4.01852021466715      1.91125025959916     -0.33323106209812
  C          -0.24261094680438     -1.87834834339708     -2.31659035825856
  H           1.88096955112877     -2.24095105663926     -2.13648571880639
  H           1.40387052312709     -1.35095690921713     -3.59627624709025
  H          -0.43930729237159     -2.03705237246157     -1.25935752731037
  H          -0.45935778474473     -2.79699369952444     -2.85547752330997
  H          -0.90147749503799     -1.09340941445692     -2.67722524647232
  C           5.30217117927543     -0.34813555793205     -4.86890198004813
  H           5.23053348112196      1.67457195547159     -5.59220660989361
  H           3.87716484863231      0.67028484438652     -6.13246503940890
  H           5.95676042034442     -0.12637698960531     -4.02928034283305
  H           5.90939156253880     -0.70931494089057     -5.69534297377315
  H           4.61721981839034     -1.13854987412691     -4.56971082043891
