22
Coordinates from ORCA-job NEB_reactant E -51.936486673270
  C           0.79725215291027      0.05720601039220     -0.17493106876383
  C           1.57501429843037      1.15418915626662     -0.26293854861490
  N           0.12657135494193     -0.28919540955443      0.95565068483849
  H           0.71023894761145     -0.62838617182232     -1.00333501387305
  C           2.38114876267621      1.51859560035399     -1.44693804440021
  C           3.86459947294628      3.80574524053570      1.34217351090232
  C           3.87073285657265      2.54489952136982      1.74313423513140
  C           2.63673779545468      1.69303241875911      1.79996835867622
  O           1.67044240164573      2.03338545497995      0.80559330802358
  C           5.10130364320896      4.64241885392512      1.28117526185601
  H           2.97010104598062      4.31181991393245      1.01224292728777
  H           4.78636705713924      2.07021902754215      2.06706084790194
  H           2.15106762393663      1.85467849548149      2.77133289909325
  H           2.90612967623130      0.63463966959785      1.72157712252993
  H          -0.64919746566443     -0.92191468611495      0.86551796653870
  H           0.03110133707093      0.43150088404944      1.65506655175307
  Br          2.30892609126927      3.44315739231380     -1.75338340867153
  Br          4.32754677275382      1.03400999194885     -1.18049528611616
  Br          1.82701614430989      0.64095918912001     -3.07981201013014
  F           6.16652412096301      4.06071188531480      1.85183005337308
  F           5.45537047414980      4.93150936699502      0.01765079765507
  F           4.93220543546136      5.82241819461334      1.90365885500900
