22
Coordinates from ORCA-job NEB_product E -51.932668634560
  C           3.15047606569838      1.38357904898688      0.10431851883986
  C           1.69826688616465      1.50354558656114     -0.35028076218173
  N           3.37453861894317      0.12601977094385      0.76758311423040
  H           3.84103222969523      1.45605124703595     -0.74324038549033
  C           1.46272284451520      1.89922323341565     -1.80093749714466
  C           3.43317198510806      2.57171985393544      1.06827338169497
  C           2.49019975123560      2.60770860008044      2.23728005166734
  C           1.57069460364488      3.54039673671107      2.39568021334168
  O           0.76605369051517      1.23144746378720      0.35040606352247
  C           4.87637083526076      2.48645218171440      1.57036174785255
  H           3.36638326842900      3.50908131320943      0.50420217779712
  H           2.61149544960635      1.81160234649029      2.95710392771223
  H           1.44384417562271      4.34658577284338      1.69121159928876
  H           0.90544203236495      3.53433715273352      3.24023269134275
  H           3.38402830142583     -0.65072933997834      0.11891964720742
  H           2.68027900116067     -0.04549944947583      1.48568910346887
  Br         -0.42780732866469      2.15648666954923     -2.12745076281915
  Br          2.43743252605347      3.51285244852489     -2.26800931355823
  Br          2.12032749080675      0.40266400029418     -2.88067607396177
  F           5.08735239111545      1.50970165885865      2.45119956702980
  F           5.74894116248733      2.30911913285531      0.56805416555832
  F           5.22705401881109      3.63115457092326      2.17807882460131
