22
Coordinates from ORCA-job NEB E -35.535723858020
  C           1.22520468438016     -0.24063715081867     -0.97048740353872
  C           0.62054275189734     -0.56858042651743     -2.20084835605023
  N           1.59941730235340     -1.37200472626262     -0.14287713344387
  H           2.04724594160232      0.46884258453074     -1.00957092387250
  H           0.90200514108657     -0.03266842334787     -3.10282442661740
  C          -0.16143572392274      0.45724256475658      0.03119825284407
  C          -1.08877812959405     -0.59447392299429      0.00346961907181
  C          -1.56811611671079     -1.06172426544083     -1.28031974673764
  O          -0.43548656683758     -1.32831452924003     -2.27437840182144
  C           0.38865452130928      0.88980189366708      1.37343057729944
  H          -0.36629837649029      1.30452265527579     -0.61902435951695
  H          -1.16127487986580     -1.26135949814189      0.84700473290796
  H          -2.15034345847951     -0.32327739597029     -1.83585914042458
  H          -2.09904668915710     -2.00839752371581     -1.22865631385268
  O           2.73598365312290     -1.36009570917921      0.28782834818994
  O           0.79252426071011     -2.25945501418419      0.01361780188028
  C          -0.61321022482841      1.79340511054241      2.08721163624271
  H           1.32695431052146      1.43078067335010      1.23649504555141
  H           0.59082545946231      0.01401463990671      1.99249643996564
  H          -0.81681354638205      2.68212084169471      1.49382816127382
  H          -0.21886337950875      2.10513563225776      3.05060234044718
  H          -1.54969093466873      1.26512198983125      2.24766325020176
