22
Coordinates from ORCA-job NEB_reactant E -35.571446184530
  C           2.62162450866826      0.95271334496898      0.27826761501729
  C           1.48855877024383      1.56298526356481      0.67084468541503
  N           2.75261991899678     -0.44245217819615      0.09409476560058
  H           3.51977552429016      1.51186616733680      0.07893948256066
  H           1.50217198748439      2.64524056808374      0.79155082043864
  C          -0.53877414289804      3.71325466715498      2.86674669218762
  C          -0.46414903859627      2.40704463494941      2.66984241015425
  C          -0.74308126301992      1.73501248250296      1.35940149572832
  O           0.35642061546554      0.93948489690339      0.92131363143703
  C          -0.27841668090309      4.39302271568697      4.17043952132745
  H          -0.84257183932698      4.36621471982331      2.05692912547560
  H          -0.16456414059248      1.74105873838862      3.46733001831610
  H          -0.99717260391361      2.47496021807373      0.59023766794651
  H          -1.56612823036420      1.02172695761545      1.45851964083643
  O           3.84940017471258     -0.83840331810245     -0.26161353924129
  O           1.79574436310654     -1.16229547292747      0.29398011898582
  C          -1.52634210057714      5.12665795476124      4.66209381289093
  H           0.52956020831801      5.11815100887475      4.03835531926859
  H           0.03819220182030      3.66121822457291      4.91494899057615
  H          -1.84362471052809      5.87162068962518      3.93591222516157
  H          -1.32230511659405      5.62855242529717      5.60432673501082
  H          -2.34203840579252      4.42366529104167      4.81343876490588
