22
Coordinates from ORCA-job NEB_product E -35.568220081630
  C           1.62563731055062      2.08268038128205      1.38810613060200
  C           1.25616319457508      1.70447150462250     -0.03570759493233
  N           1.96783917612220      0.87974647494765      2.18196280263976
  H           2.52693722515395      2.70787576813147      1.36558648056139
  H           0.97207090292603      2.59318891405953     -0.63044726209882
  C           0.45856434770356      2.87758126939558      2.02866604023379
  C          -0.84843095508749      2.16885046251905      1.81012049538329
  C          -1.84884573462007      2.67795981877006      1.11676771214214
  O           1.26259204839023      0.60533681031984     -0.49252136336697
  C           0.72048618661644      3.11483293421961      3.52358193805971
  H           0.42604189074693      3.84836078827716      1.52078329367099
  H          -0.93006632993751      1.19180900925552      2.26427416888598
  H          -1.78995994082565      3.65238315804217      0.65777099028925
  H          -2.77418402774237      2.14561812683447      0.98388467231160
  O           3.08335405361862      0.84881612616371      2.64449559112240
  O           1.12638776404328      0.03157141996056      2.31730904693118
  C          -0.26237922929777      4.12722461099107      4.09814618350881
  H           1.74115905826603      3.47997513448994      3.66115621037049
  H           0.62249089769022      2.17346832254742      4.06789973483146
  H          -0.15789421246398      5.08891222976342      3.60065109042124
  H          -0.07794935313106      4.26815105841298      5.15963167424145
  H          -1.28461427329729      3.78108567699424      3.96688196419118
