17
Coordinates from ORCA-job NEB_reactant E -41.971226091650
  C           2.28621136518022     -0.48107560866126      0.24852888623094
  C           1.63871379463773     -1.61827975814015      0.48227351074339
  I           3.09833941354253      0.27124824461420     -1.52559908823672
  H           2.43210331074249      0.20638218650311      1.06324424167774
  C           1.15892858265514     -1.88611481693853      1.90689694909644
  C           3.96112427486035     -3.48082810835172     -0.67095906199364
  C           3.20045276464674     -3.11039288755941     -1.68835184768351
  C           1.72157927551013     -2.87748245759842     -1.57652368199800
  O           1.26818459876514     -2.68770980184705     -0.24764716777237
  Cl          5.64878864418774     -3.73879671678854     -0.82668663667235
  H           3.58700993018198     -3.64950476979838      0.32806570410917
  H           3.61624668686571     -2.96589641708109     -2.67369400787916
  H           1.18000023788157     -3.77085795307566     -1.90713217915246
  H           1.41657743082799     -2.04227448765313     -2.21562508798297
  F          -0.14755261364423     -2.15540161296198      1.94462892552759
  F           1.79423051515843     -2.94473529581318      2.42781910746453
  F           1.36846178800034     -0.86467973884878      2.74346143452136
