22
Coordinates from ORCA-job NEB_product E -39.884353877990
  C           2.01201628033553      1.87667582517108     -0.07816761420447
  C           0.86558929991946      2.28808219222534     -0.97370940206148
  N           1.59671792473013      1.26616533941141      1.15714352893900
  H           2.66051486052972      1.19135748478615     -0.63482262012849
  N           1.26935969431384      2.43599192819797     -2.44197075548083
  C           2.81041497147965      3.18193661359056      0.20639369611721
  C           4.14692195022059      2.84325281687959      0.79710497858007
  C           4.47448298856177      3.06979591958533      2.05437148508700
  O          -0.25920827275371      2.51014455027203     -0.66291757421952
  O           2.91122889434598      3.84991577148653     -1.03794530635137
  H           2.22817001123563      3.79372845822102      0.91560806337575
  H           4.83750377314309      2.38664646303752      0.10213537212772
  H           3.78522430935370      3.52351312412362      2.74696681770575
  H           5.43997894422678      2.80041836580155      2.44546032338931
  H           1.16351478798792      0.36545457260221      0.99039765935826
  H           0.92623985248500      1.85364647571465      1.64191698336656
  O           0.72529600280819      3.31382567341147     -3.05421588375136
  O           2.08656985437861      1.65047942374250     -2.85711709192958
  C           3.44991578986207      5.14866043472568     -0.95033125090783
  H           2.83494532739295      5.78302344338381     -0.30195477987145
  H           3.44152267098178      5.54424813761836     -1.96330692088465
  H           4.47438008446129      5.13053698601163     -0.56613970825560
