16
Coordinates from ORCA-job NEB E -26.233019076220
  C           1.02951559782240     -0.55480417745018     -0.78312231757379
  C           0.30347170489141      0.63243813013939     -0.92761643111592
  Cl          0.51268260477799     -1.94533727761822     -1.69803819105878
  H           2.10989284661153     -0.50078028799491     -0.72809576015923
  N           0.90704103064559      1.82635086052315     -0.54162548261963
  C           0.37307074047964     -1.00536446311244      1.05425296516818
  C          -0.99803324177559     -1.02924508619535      0.87641827032279
  C          -1.62659326388538      0.19354303393704      0.48452912675877
  O          -0.99546380674472      0.60760562384331     -0.94845274904382
  H           0.88824517583537     -1.93411970239717      1.25111828180429
  H           0.81983097469098     -0.14093841890475      1.52800542460182
  H          -1.47130529582991     -1.95509478625518      0.58532774497452
  H          -1.36878247136720      1.06733872800198      1.07993471079059
  H          -2.68351339075469      0.14542289961979      0.25173445859112
  H           0.32856733430160      2.64032317633327     -0.68370094973428
  H           1.87137346030097      1.95266174753027     -0.80066910170664
