16
Coordinates from ORCA-job NEB_reactant E -26.255736597290
  C           1.99082117523917     -0.00270237976669      0.05505991437039
  C           1.41708117622695      0.41008360773053      1.19172496152778
  Cl          2.32162357250223     -1.67075106326088     -0.23445936912227
  H           2.27170332265957      0.66345832210576     -0.73911036490181
  N           1.02179998299140      1.73479098835570      1.38448200918426
  C          -0.49591414182809     -1.58300347620154      5.07094455229273
  C          -0.31765366859727     -1.39568887690157      3.77780026077515
  C           0.20509550401401     -0.12888355596759      3.17308107067727
  O           1.15939361221443     -0.47664734020801      2.18153361484817
  H          -0.89057204304965     -2.50495524149935      5.46032469295635
  H          -0.26477632959740     -0.81845256940210      5.79487729150206
  H          -0.54182496842483     -2.17052388051502      3.05925199325381
  H           0.66608113247015      0.50043389737922      3.94767302937265
  H          -0.62067759779007      0.43018675226753      2.71081917968499
  H           1.24607705237215      2.10369190160789      2.29926793666224
  H           1.33884221859724      2.34636291427610      0.64732922691623
