25
Coordinates from ORCA-job NEB E -42.384552413440
  C          -0.48274033163987      0.90642618933822      0.57557946787900
  C          -1.53951348442161      0.02053478813050      0.88040190072060
  N          -0.79500341098177      2.07246008659414     -0.09754926052625
  H           0.28914229148727      1.04011969365432      1.32754322276359
  C          -1.46928235319476     -0.78131583950382      2.15543803663958
  C           0.48074220574540     -0.22625043656571     -0.86780954493908
  C          -0.26493010928853     -1.39590002056286     -0.99090609039579
  C          -1.60176569050691     -1.31992552906726     -1.37613923920661
  O          -2.36540482077705     -0.36312707449399     -0.00092634463495
  C           1.93255347078739     -0.27517140115376     -0.47019771355107
  H           0.25907361185635      0.53228112199097     -1.61256993691901
  H           0.06659121118043     -2.27389779848321     -0.45022377761845
  H          -2.21017647842464     -2.21096807344605     -1.35892185065660
  H          -1.89278003800158     -0.59151448750967     -2.11921842817374
  H          -1.57463967690737      1.98495328768784     -0.73468313059038
  H          -0.01675037211494      2.59105451408376     -0.47509495149548
  Br         -1.71849677968034      0.41917976728783      3.68668926036675
  Br         -2.85991250914017     -2.11817119704820      2.16151868793665
  Br          0.25042858145905     -1.70608510983509      2.45572536226065
  C           2.62015822442148      1.08560930305739     -0.49924344965190
  H           2.43817802661623     -0.93472593891397     -1.18229435385294
  H           2.04729035027653     -0.72955341883549      0.51439312960274
  H           2.51144936068206      1.55142988664038     -1.47727775092915
  H           3.68161595629731      0.96619702889204     -0.29850649717303
  H           2.21417276427004      1.75636065806169      0.25427325214489
