25
Coordinates from ORCA-job NEB_reactant E -42.425139403850
  C           0.52774797140349     -0.00823889733164     -0.28365874696184
  C           1.38854407555873     -1.04159987777330     -0.20910428932361
  N          -0.31396055901564      0.19531413172654     -1.33609752061682
  H           0.51319146586587      0.74708233823028      0.48859030947221
  C           2.35002052693345     -1.17541291693301      0.91298565200260
  C           4.67345296452961     -1.52544741484477     -2.26401121240726
  C           3.58244590188975     -2.27421589728176     -2.25554860597992
  C           2.18729307268349     -1.73888809586667     -2.35042688485027
  O           1.41362623209224     -2.02623987678245     -1.16928339742577
  C           6.06322286746214     -2.06195086200552     -2.15617057039335
  H           4.59503346504897     -0.44760188720695     -2.34362679550823
  H           3.65143718663998     -3.34887035070974     -2.15723834548623
  H           1.64946214789961     -2.24483272806073     -3.15961053357215
  H           2.19230817085726     -0.65897234602826     -2.53651412149469
  H          -0.45045345958224     -0.59727655905577     -1.94569097701887
  H          -1.12560985285726      0.76712158073055     -1.17710501880796
  Br          3.85090193189709      0.14555726483960      0.76342964286874
  Br          1.51835606460994     -0.82676250936962      2.65623785867536
  Br          3.12100770118968     -2.93744006799976      0.97227108039754
  C           6.72875700190009     -1.61090921860709     -0.85561180796826
  H           6.65024834477897     -1.69490504566601     -3.00240609559918
  H           6.04348555372400     -3.15221762352848     -2.19755946861933
  H           6.72644284909143     -0.52601050319764     -0.77841889605147
  H           7.75722066065928     -1.96067049123145     -0.81682640081067
  H           6.19601771474006     -2.01841214604633     -0.00020485452061
