25
Coordinates from ORCA-job NEB_product E -42.418730395620
  C           3.14554605157005     -1.00921934894157     -0.22762165640853
  C           1.64013181048571     -1.19232469073452     -0.20626338434605
  N           3.33113271923321      0.35883472748557      0.21594532967433
  H           3.62957152741896     -1.66402386932694      0.50660583508785
  C           1.07719114989985     -1.88552233387277      1.02157841108074
  C           3.65635742329880     -1.36756220135145     -1.64677610732458
  C           3.31409465166705     -2.80687685682776     -1.90454014704904
  C           2.36904024092280     -3.21023794711336     -2.73241263685559
  O           0.89767754837976     -0.78058662229730     -1.04885692441958
  C           5.17065637442301     -1.13623318910102     -1.78665030420563
  H           3.11783888845059     -0.73802785364988     -2.36325071620631
  H           3.89689904468580     -3.52537841694488     -1.34188263568157
  H           2.14838101485204     -4.25394259155067     -2.87609650076090
  H           1.77326310812798     -2.51163849740983     -3.29713748216021
  H           2.95596326354399      1.01265609042431     -0.46250233893866
  H           4.31045880632269      0.56387416385436      0.36850114828194
  Br          1.67579745316968     -0.97739669846783      2.62398497742553
  Br         -0.85159300788380     -1.88867112153232      0.95382664210773
  Br          1.71836043129682     -3.71984504665640      1.04628912802074
  C           5.52455307578452      0.24138086476759     -2.33753364648714
  H           5.56714879288437     -1.88979368598593     -2.47061336320544
  H           5.65754541741376     -1.28858956719863     -0.81957937394947
  H           5.07484422517668      0.38225520193808     -3.31807195439871
  H           6.60326276177566      0.33319153467552     -2.44272066597721
  H           5.18097722710001      1.04227795581764     -1.68692163330423
