21
Coordinates from ORCA-job NEB E -29.605952186470
  C           0.47332392792848      1.01721692965043     -0.23734189052262
  C          -0.78538379824040      1.20696925052523      0.37490122542981
  C           0.57017861536305      1.11145126785958     -1.65034013005746
  H           1.33806544636061      1.43726921833579      0.26944811883902
  C          -0.84608984424141      1.64487150105766      1.81378162298048
  C           0.64821959938581     -0.91777087649205     -0.03207049336262
  C          -0.50733919486685     -1.36262148659282     -0.68202096564408
  C          -1.76454443873883     -1.00847869089042     -0.14817295015149
  O          -1.83017490058292      0.67493188239982     -0.15972634143938
  C           2.00015114363655     -1.26197915092905     -0.59512306750763
  H           0.62467217574490     -0.91829658486327      1.05566219821854
  H          -0.44270321795065     -1.56797016257548     -1.74107606049429
  H          -1.91196613189102     -1.15205720322454      0.91844121793887
  H          -2.64026855100133     -1.25407281223577     -0.73317530576788
  N           0.66710760653363      1.20980745188203     -2.78710358192241
  H          -0.77632881506623      0.77100914261839      2.46735072310773
  H          -1.80161042259975      2.12639752020635      2.00705282527919
  H          -0.03858928756109      2.32909955543891      2.05699782265169
  H           2.78330906199668     -0.65341014592978     -0.14864288694089
  H           2.01981010595571     -1.12596045923651     -1.67356666577538
  H           2.22016091983503     -2.30640614700450     -0.37527541485920
