21
Coordinates from ORCA-job NEB_product E -29.650436383430
  C           3.26503417196505     -1.76340660970207      1.04477931805629
  C           2.10845193108505     -1.34056934689341      1.96011669596419
  C           3.59777547156651     -0.77375416885018      0.05625078571444
  H           4.14491655803173     -1.93182816088918      1.67845440457137
  C           1.14832322673722     -0.34735076041709      1.38091807866099
  C           2.89832293646488     -3.12111370079095      0.37474048969456
  C           1.77838862152935     -2.94645441481553     -0.60683905045783
  C           0.59219162521836     -3.51211724939064     -0.48547956168185
  O           1.99843272347452     -1.82536353166963      3.05448897480493
  C           4.12581154282719     -3.70077916654626     -0.32949138268518
  H           2.58251819945432     -3.79928089294304      1.17443111900234
  H           2.00952498311130     -2.32046152090941     -1.45983158196678
  H           0.34679556961630     -4.13861856712610      0.35676347944046
  H          -0.18261680936555     -3.37539803293671     -1.22039922568749
  N           3.87011950700042      0.01025662847261     -0.73104679709402
  H           1.67060333465180      0.58465398517580      1.16924202184092
  H           0.33467420545768     -0.16197469962427      2.07738768141813
  H           0.75399729803833     -0.72822487588498      0.43984395653023
  H           4.93141899307772     -3.87744383084822      0.38008369843744
  H           4.48262641829856     -3.01834060890210     -1.09867716017435
  H           3.86718949175925     -4.64683047450860     -0.79963594438881
