16
Coordinates from ORCA-job NEB E -27.774502248360
  C           0.43277109060957      0.28125942197355     -1.22707738999897
  C          -0.49085737272443      1.31134052236379     -0.94188529397177
  C          -0.06389843132614     -0.97548703803111     -1.67899272705238
  H           1.36769634173440      0.56562013500980     -1.70318092086082
  H          -0.12601780025954      2.34370269738311     -0.98190685580247
  C           0.87916814982083     -0.19370409856837      0.60141240837448
  C          -0.37741966034407     -0.53465949292079      1.13510272306963
  C          -1.33000680909102      0.49020177388484      1.26742757467341
  O          -1.58069452396903      1.06709890635331     -0.32498019009456
  C           1.86145974034780     -1.21286794237280      0.43489728548029
  H           1.31741232687237      0.75633783693175      0.90148223521659
  H          -0.71543531541054     -1.55474196304326      1.02106409971023
  H          -1.00929431914273      1.43064410957554      1.70303899417337
  H          -2.33536734385114      0.20733387559349      1.54609685405058
  N          -0.49423516612898     -1.96641696326784     -2.05377007667704
  N           2.66471909286266     -2.01566178086503      0.30127127970944
