16
Coordinates from ORCA-job NEB_reactant E -27.821236436310
  C           1.68367159261635     -0.37484762110174      0.16946332679872
  C           1.26132364029699      0.38845293174078      1.18901919182864
  C           1.74459373570820     -1.77361931435386      0.10973366058294
  H           2.01150872167608      0.11920031654902     -0.73413456302539
  H           1.25595479443389      1.46628583585887      1.07540022301861
  C           2.59834542303119     -2.98779718950697      3.05766213574828
  C           2.14252113054315     -1.75122015459996      3.24102626791651
  C           0.78172014860655     -1.28432767438602      2.82433219175257
  O           0.79471932672867      0.07015884182148      2.39838583092336
  C           3.87304211254167     -3.38461226886909      3.50707184666008
  H           2.02026050075164     -3.74696451302799      2.54811013547786
  H           2.75034610798278     -1.00453459847094      3.73611167018930
  H           0.12073341244039     -1.28360238695852      3.70028202020742
  H           0.35051134307478     -1.93564052048608      2.05738348605962
  N           1.81914584472049     -2.91634537655839      0.01173505361073
  N           4.90220216484717     -3.71258630765060      3.89091752225078
