20
Coordinates from ORCA-job NEB E -40.675492900270
  C           0.42560693822786      0.54902480064200     -0.99147656840660
  C          -0.91261268541724      0.40076297140320     -1.41612930191925
  N           1.34142371713315     -0.53593536617223     -1.23725168167220
  H           0.88107017129672      1.51436342101424     -1.18498619703640
  O          -1.52236059829537      1.52567130025502     -1.85017446132124
  C           0.17007886386080      0.36027087864704      0.97187415882597
  C          -0.45342038458599     -0.88332042170828      1.03820525208044
  C          -1.73308359881835     -1.02979142707235      0.45651789036599
  O          -1.60580216673361     -0.63910022049382     -1.19464580884546
  C           1.53334342978623      0.55299050780148      1.58798513187956
  H          -0.43972770979143      1.25394983221941      1.06152961674800
  H           0.16147381535208     -1.76155254742731      1.15984804670873
  H          -2.48199106272069     -0.28319732016831      0.70283026243773
  H          -2.12886807155050     -2.03315632096136      0.38719638452278
  O           2.46193614904046     -0.21149825933023     -1.56925447062697
  O           0.93695950432621     -1.66803343503963     -1.12659210209537
  H          -2.44941141169206      1.33716127098654     -2.05813419860194
  F           2.28775419678887     -0.58385425885404      1.51258898981823
  H           1.42509808348956      0.78687281120618      2.65503593385929
  H           2.10253282030329      1.34837178305247      1.09503312327872
