20
Coordinates from ORCA-job NEB_product E -40.725543691900
  C           2.12528502304504      0.95973310734505      2.20865487440563
  C           0.74377454745216      1.69923568130620      2.10430152643949
  N           2.18045036830121      0.03131342749979      1.07067424053681
  H           2.89721546938928      1.72403905497751      2.04882713496586
  O           0.52666557836568      2.27004755837372      0.94068739090377
  C           2.33439192531990      0.25840775818836      3.55418332109169
  C           3.59103639248486     -0.57297748173358      3.53125081609665
  C           3.64449276685717     -1.83363605005440      3.91217352645399
  O          -0.01084616352147      1.73892209415013      3.02618340205136
  C           2.45085871923482      1.31342294239380      4.66436544090682
  H           1.46965448963033     -0.37066929773337      3.78089238498896
  H           4.48303722443973     -0.04564442231547      3.21992464982005
  H           2.76423234358579     -2.36884510246091      4.22563032925018
  H           4.56769221537405     -2.38552358597056      3.91019369771056
  O           2.25505861393091      0.57131856115639     -0.02383306663497
  O           2.09418780452822     -1.14867447957938      1.25888703362963
  H           1.17620943302302      2.00775444547305      0.24605294894363
  F           3.45116477555717      2.20600276038331      4.35934682567957
  H           2.72250694744520      0.84077599172462      5.61175664951933
  H           1.52853152555693      1.88839703687572      4.77234687324099
