20
Coordinates from ORCA-job NEB_reactant E -40.701786291040
  C           1.71599141881206     -0.05430182062592      0.12019354792838
  C           1.67158511590968      1.05819919537312      0.90996688132635
  N           1.60505497858019     -1.39693087685708      0.49739983764654
  H           1.81086575900709      0.07047060006072     -0.94862049952279
  O           1.54722737460020      2.26943781812869      0.34488456691715
  C           2.63052559859216      0.42908721450734      5.50146280599975
  C           2.85427624050542      0.91310155361806      4.29172580195280
  C           2.43150925062354      0.22380995499806      3.03416096221538
  O           1.78576364535691      1.19685126151565      2.21058029636900
  C           3.07183387758281      1.08439151614039      6.76915056883709
  H           2.11098098351310     -0.50755147917288      5.64706945216197
  H           3.36637959035005      1.85515584187056      4.15945751585104
  H           1.75109569511599     -0.60839996758593      3.24455719731445
  H           3.30987416529520     -0.16942884490140      2.50370195823822
  O           1.97078154072694     -2.22778988000365     -0.31492987483448
  O           1.10987516189448     -1.67557964639099      1.58056814421403
  H           1.33639487484807      2.21289086551322     -0.59593036736312
  F           3.76147191499940      2.24591064923436      6.53956912070798
  H           3.74026877365690      0.42511496013635      7.33734601053443
  H           2.20754404002980      1.34516108444133      7.39298607350582
