18
Coordinates from ORCA-job NEB_product E -42.835529155250
  C           3.00685977996065      1.54586974537360     -0.49677452661835
  C           1.94155806034415      0.95954854491243     -1.39722867954150
  C           2.88228183858923      0.93182748506281      0.81245160136290
  H           3.98339854761924      1.25519864372659     -0.91063701996446
  F           2.08951808614710     -0.38075445430424     -1.49084450728506
  C           2.87746402372213      3.08631219299785     -0.45282319661675
  C           1.78869583140856      3.51274578677312      0.49742353254303
  C           0.65432870105852      4.05157117728440      0.09598156168381
  O           1.08418384290961      1.50881669047799     -1.98606098807502
  C           4.21026994484116      3.73616133994825     -0.07810977714621
  H           2.62111124020314      3.42651292585641     -1.46270060702558
  H           1.98792429054919      3.33290508320673      1.54413623145510
  H           0.44192140448287      4.22465368566573     -0.94563693826065
  H          -0.11178689782333      4.33123597807199      0.79722736647936
  N           2.75872110664081      0.42780773970753      1.82820329343580
  Cl          4.00956688952274      5.50091562285594     -0.02757005207758
  Cl          4.79700749260103      3.17725377822203      1.50600241411193
  Cl          5.45487581722322      3.35301803416083     -1.30253970846076
