18
Coordinates from ORCA-job NEB_reactant E -42.822968518300
  C           1.83749693033942      0.45601509797672      0.31732915265693
  C           1.52897865669979      0.61816690856118     -0.97618121717858
  C           1.81784213826302      1.44393117284683      1.30750638416271
  H           2.10853578907373     -0.53535078238593      0.64971819399111
  F           1.55934431905726     -0.45886406448477     -1.76898832716800
  C           3.13195453422638      4.11468091490107     -0.00516711923731
  C           2.66618223722504      3.42575566417932     -1.03402782937856
  C           1.24203112794952      2.97372838098263     -1.15879117706313
  O           1.15704086075246      1.66430184502261     -1.70254682212642
  C           4.53290499000774      4.58248246983550      0.15320733326897
  H           2.49751272803081      4.37174097249631      0.83215208208374
  H           3.30299789057698      3.15402810723161     -1.86453198101869
  H           0.72387730077746      3.59621195285201     -1.89607008037014
  H           0.71590812175529      3.03648045607366     -0.20171982936339
  N           1.80139334408938      2.21530505667102      2.15798115107202
  Cl          4.53924395549030      6.35209328468599      0.39843724831872
  Cl          5.23209372451100      3.80747628693944      1.60579921968837
  Cl          5.57076135117445      4.21261627561477     -1.22920638233835
