21
Coordinates from ORCA-job NEB E -53.944911540430
  C           0.50063552460461      0.79187071186434      0.32216315772159
  C          -0.82507766361779      0.53502322656633      0.69065151658155
  C           0.78714492637560      1.80689904819509     -0.74365438708331
  H           1.23016217206655      0.86202533044821      1.12181744518065
  C          -1.06393956033756      0.13323335491873      2.15055379622626
  C           1.00263816592234     -0.94676232794809     -0.75814586155150
  C          -0.20601583658795     -1.64878335928097     -0.77282870046773
  C          -1.33509866070916     -1.04935802354600     -1.31728396192003
  O          -1.73231646814874      0.29700168080514     -0.14661306945760
  O           2.04064316659027     -1.46958171015139     -0.08352996207405
  H           1.24474903425263     -0.36517625156008     -1.64222540158089
  H          -0.31769791568207     -2.43374671341213     -0.03808956212408
  H          -2.27821541420309     -1.57013994497453     -1.26170594174670
  H          -1.22641254588237     -0.39135440589370     -2.16706115994090
  F           2.08363850161958      1.76082663351427     -1.12448145574651
  F           0.06871694229500      1.68677377382683     -1.86280652837220
  F           0.58743490148932      3.05516301175538     -0.29424176199368
  Cl         -0.02378509702065     -1.24718059927666      2.59090665095130
  Cl         -0.65123615025914      1.50530643229296      3.20317533985196
  Cl         -2.74812586647022     -0.31565799780126      2.39866872643219
  H           2.86215784370287     -0.99638187034246     -0.26526887888634
