21
Coordinates from ORCA-job NEB_product E -53.978375758790
  C           2.54130799205478     -1.73150975210502     -0.14638652661117
  C           1.28836826869965     -2.13475118888792      0.61337421663283
  C           2.27428442932644     -0.53077997948914     -1.05091963574770
  H           3.33505949967634     -1.44525939039682      0.54856350798413
  C           1.43356742686103     -2.14326897603557      2.14434531757105
  C           3.02524366932449     -2.95403815531638     -0.98168190877510
  C           2.10623468048909     -3.25708783738249     -2.13182796529155
  C           2.48130713250438     -3.17155221004753     -3.39409571121303
  O           0.24834730554248     -2.40199823709296      0.09592161020950
  O           3.09370357355883     -4.02622044654386     -0.06525620887326
  H           4.03105678837820     -2.71507342373666     -1.36507030621534
  H           1.11065547440959     -3.57050842650901     -1.85400529238522
  H           1.80562647924505     -3.40436647282382     -4.19777569831546
  H           3.47210183127661     -2.85176921837002     -3.67438513641731
  F           3.31507747072117     -0.30476079588818     -1.86834288710359
  F           1.19836141152311     -0.64672062236597     -1.82410503403371
  F           2.11395307550807      0.58837280850170     -0.33266144098182
  Cl          2.93677888682818     -2.87493598497367      2.70244943002579
  Cl          1.41083342755158     -0.40698108982042      2.58780556122891
  Cl          0.06030933323238     -2.96240652597144      2.88237543008143
  H           3.30612184328854     -4.83468407474482     -0.54502132176940
