20
Coordinates from ORCA-job NEB E -41.107954088190
  C           0.53988532775739     -0.40706485333065      0.80852962832147
  C          -0.46818097858730     -1.23851877422560      0.28760393065300
  C           0.15834108090841      0.49050458334701      1.96140962487470
  H           1.52003058150014     -0.86546740762260      0.92786448967841
  N          -0.04847223383158     -2.39828604686650     -0.46887214551826
  C           0.74896038075827      0.72769783262706     -0.71707289200022
  C          -0.55799292611970      1.18356861817002     -0.94013433962436
  C          -1.57561627876492      0.21160998333081     -1.25463809476303
  O          -1.63350917268544     -0.73714603137247     -0.02918442305780
  C           1.75373232889406      1.69461541364711     -0.39989393127041
  H           1.14456390205786     -0.03948858578695     -1.38130008511804
  H          -0.85329914930164      2.13850489325211     -0.52936918272540
  H          -1.35442813799766     -0.46271891365404     -2.08420764327074
  H          -2.58531471116198      0.60354872827752     -1.32275313474191
  F           1.15505164838603      1.36794358827914      2.27035417309906
  H           0.00507106798411     -0.13607616900683      2.84966986194132
  H          -0.74777098947471      1.07015998211027      1.76017620980827
  O          -0.81726564616276     -2.81406686218335     -1.31131637454940
  O           1.04845915749850     -2.86243992094554     -0.21748338304912
  N           2.56775474834292      2.47311994195348     -0.20938228868755
