23
Coordinates from ORCA-job NEB E -49.361809797660
  C           0.62912173285585      0.31369841372878      0.73102010715191
  C          -0.67141651299261      0.64409003925437      1.14556190952364
  C           1.50405792528632      1.41447678021176      0.15747667523989
  H           1.21511601251160     -0.29930836532223      1.41145479037608
  C          -1.35435821917094     -0.17544546928134      2.21647776198111
  C           0.15806152332893     -0.87232173960146     -0.71419370786462
  C          -0.65722728466382     -0.08092238991787     -1.52772630454622
  C          -1.85639583454618      0.45088841107366     -0.95957245042265
  O          -1.44986804042983      1.30357787322503      0.32917468371731
  C           1.41451426216525     -1.46392343657482     -1.31889629102052
  H          -0.31632325559817     -1.61295641720552     -0.07429732993922
  H          -0.20798552713000      0.43502216987154     -2.36180556504325
  H          -2.53398723900982     -0.27587145272900     -0.51252092748114
  H          -2.38037092403355      1.17740133132951     -1.56899780911299
  F           2.74842561650556      0.96156308720959     -0.10220184955202
  F           1.04583107273717      1.96670903612062     -0.98338664744197
  H           1.60708137703688      2.23038444161268      0.89506772657912
  F          -0.45125055665352     -0.77773903161630      3.04675885769314
  H          -1.96359971424624     -0.97670470465802      1.76810242035760
  H          -2.00007750662686      0.46202180942905      2.82960468639494
  F           2.06167148571148     -0.61130463537112     -2.13446046609471
  F           2.28892247711247     -1.84972361537514     -0.35952989334460
  H           1.17005712985003     -2.36361213541375     -1.91311037715084
