23
Coordinates from ORCA-job NEB_product E -49.407667999170
  C           2.01760910196604     -1.94150459125138     -1.05196850922222
  C           0.65134125655032     -2.45432502444900     -0.57057706593615
  C           1.92401551356289     -0.41713714255547     -1.22307866940293
  H           2.79548921508699     -2.13543050135199     -0.30769690922690
  C           0.71364066993265     -3.16312226206541      0.76963863440640
  C           2.39903196983067     -2.61725409300413     -2.38937233075790
  C           3.66264781980457     -2.03054907556957     -2.95790027560310
  C           3.71905595689887     -1.40993219150222     -4.11971160609211
  O          -0.35140043436662     -2.28421089029377     -1.19804589870215
  C           2.60363048120413     -4.11779171260362     -2.17484023367762
  H           1.56936107322214     -2.49315106301426     -3.09301735719949
  H           4.54081743123814     -2.14556668766535     -2.33754209329769
  H           2.84517576755077     -1.27476123986731     -4.73487901496300
  H           4.63950934817739     -0.99602786372116     -4.49163794626908
  F           3.15946122056322      0.13864354134704     -1.18686154559377
  F           1.38439715100109     -0.06869283468536     -2.40490843987276
  H           1.32802164381359      0.05801480334381     -0.42727630437502
  F          -0.53126603969337     -3.44565940186932      1.24261015628088
  H           1.21571107863131     -2.53502918195722      1.51568755893066
  H           1.25125782940807     -4.11306565302044      0.66129980344943
  F           3.46128390953311     -4.35261669720460     -1.14804335403805
  F           1.45028379850280     -4.73825599019967     -1.83002616500530
  H           3.00242423758122     -4.61857424683959     -3.06905243383212
