22
Coordinates from ORCA-job NEB E -36.971850385910
  C           0.22167191316459     -0.83357178961646      0.62391114815464
  C          -1.12946822961345     -0.57632396170024      0.90190031601622
  C           1.25094540802587     -0.14099864835416      1.47629680702119
  H           0.47501861686470     -1.86536126682440      0.39965666916238
  N          -2.10066077293100     -1.48780135666897      0.52409711948607
  C           0.31454579805427      0.13550727833601     -1.09897207555772
  C          -0.10948225709802      1.41831484993538     -0.76329987154248
  C          -1.43036110613598      1.54441863320673     -0.22972673511028
  O          -1.52174511638649      0.65010505268911      1.10524480808123
  C           1.69527768379504     -0.08106726163975     -1.66451002579500
  H          -0.40472366891145     -0.51195758097835     -1.59385663979496
  H           0.63421234301209      2.14460720179851     -0.47350374458666
  H          -2.21920625083159      1.09160471930401     -0.82829868705945
  H          -1.70564780055503      2.52728377004391      0.13411108714904
  F           1.43870279410496     -0.87567056921410      2.63452292715233
  H           0.90436934524937      0.84838764135854      1.78435631399275
  H           2.23183961299304     -0.07761400011818      1.00221978271894
  H          -3.03992472391684     -1.23986247746949      0.79470071172378
  H          -1.87594082855154     -2.46331143235130      0.62946601306082
  F           2.62170688921663      0.78517245969309     -1.13982425882310
  H           1.68334597701067      0.10180868480901     -2.74629224194599
  H           2.06552437344017     -1.09366994623893     -1.47219942350377
