22
Coordinates from ORCA-job NEB_product E -37.028295431980
  C           2.07873767519013      0.17300770387091     -2.10478724450301
  C           0.82179162996936     -0.61095609634768     -2.48641795935601
  C           1.82285187250118      0.79834014408467     -0.72930278556789
  H           2.93449385630506     -0.50342251057163     -2.01363063742388
  N           0.90401805877438     -1.94195569617631     -2.26565277780263
  C           2.37530630211716      1.24789365044225     -3.16695598331856
  C           3.48228279581617      2.16031967527941     -2.72645853562125
  C           3.34535866677681      3.46256270865259     -2.57191264451385
  O          -0.17308736686423     -0.08591646063136     -2.92632595820012
  C           2.75424078150673      0.56388698243487     -4.48391964395592
  H           1.46027658546487      1.82460450136472     -3.33564174438147
  H           4.43328076102072      1.67884771696083     -2.54167851277388
  H           2.40716199441523      3.96021979804127     -2.75528579411474
  H           4.16503438221838      4.08673007561694     -2.26160116386022
  F           3.00809848217665      1.08142902445274     -0.09993134755075
  H           1.28536928655985      0.10487410918860     -0.07266899524664
  H           1.26838442009111      1.73605728902935     -0.81532715995665
  H           0.09657862504050     -2.51268836925081     -2.45786048447243
  H           1.71751794316819     -2.37991613535319     -1.87265399884146
  F           2.93588739872801      1.49554894520049     -5.47190969401881
  H           1.95770565049796     -0.10595267733174     -4.82481233307187
  H           3.69921019852577      0.01508562104307     -4.39426460144795
