22
Coordinates from ORCA-job NEB_reactant E -36.993751669000
  C           1.83252855748243     -0.06499203589887     -0.32270725577119
  C           1.28806329065826      0.04285944176622     -1.54407299070380
  C           2.20212180169075      1.07475077094530      0.55934403155519
  H           2.03306965358988     -1.05445733724477      0.05474987325787
  N           0.91484229078621     -1.06533856485582     -2.29127013808625
  C           2.69523232786666      0.79236145209633     -4.48012946936564
  C           2.73829429587374      1.89908404165307     -3.76011678556725
  C           2.01579409513219      2.14079581356428     -2.46759991548687
  O           0.98089502042424      1.20644230595497     -2.18826607954767
  C           3.44724579714590      0.58611376901435     -5.75562315574738
  H           2.10387896310086     -0.05963754845001     -4.18119831251415
  H           3.35073890307565      2.73184162607306     -4.07755591923298
  H           1.51628755934805      3.11474996103245     -2.51130258342179
  H           2.76163197531802      2.17189590782690     -1.66803265658881
  F           3.53361958514737      1.45977104982341      0.40387787252727
  H           2.10263287956245      0.79855171968556      1.61332046199509
  H           1.60460373122233      1.96793718020581      0.34997446322932
  H           0.19692977796357     -0.85977902265429     -2.97094699763020
  H           0.74656833475974     -1.90713828672663     -1.76317109303359
  F           4.17192161190584      1.69235566577332     -6.12130618229587
  H           2.76096531485101      0.37142176304787     -6.58497091602964
  H           4.16173423309484     -0.24108967263250     -5.65619625154164
