91
Coordinates from ORCA-job A2S E -115.002098324990
  Ru          0.05016378254449      1.99870152017000     -0.19246347563691
  H          -0.10389216618806      0.47843598591196     -0.47005962495868
  N           1.19743993159917      1.43754683749855      1.43032464140137
  C           2.53404485163228      1.31374217661977      1.31944104159916
  C           0.65495890358876      1.33547491588714      2.65813746184799
  C           3.36203316393281      1.27459125317863      2.43234346741227
  C           1.43043167271527      1.31272557860723      3.80653691102422
  C           2.81182543758228      1.33050823240542      3.70159295823315
  H           4.43082535774355      1.20287764824303      2.29833444402467
  H           0.95012954750905      1.27561247230004      4.77254458695298
  H           3.43774042212129      1.34445786768968      4.58027614523068
  P           2.08435350710989      2.08849914291793     -1.26318430801927
  C           2.44152479823868      1.18835840643358     -2.89932823820005
  C           3.01918750485042      3.75868039069745     -1.28028423154319
  P          -1.64998546394760      2.02325603424215      1.34014887298799
  C          -2.09644430952762      3.68305916666499      2.17934326320624
  C          -3.25341152017971      1.01429656941027      1.12832450661229
  C           3.09585802424129      1.12853709197584     -0.05362179623762
  H           2.94248535351667      0.07208703704362     -0.31454305677904
  H           4.16516699040162      1.34813364649757     -0.09610751637647
  C          -0.82738282921474      1.13771305830954      2.74042417729797
  H          -1.00751608530361      0.06934716770927      2.56523268650751
  H          -1.22419553393954      1.39855243967605      3.72430927515536
  C          -0.97178808636712      2.46679756893590     -1.64751315687997
  O          -1.62398285616392      2.72641382939772     -2.57140136204122
  H           0.28621332251607      3.47041077314061      0.18213317708522
  C           3.87196189158490      0.67940550458798     -3.07786891471730
  C           1.51460191881518     -0.02725175380719     -2.91818940907995
  C           2.02810247968211      2.10286959828048     -4.05321909445404
  H           4.12457708629840     -0.04737688474262     -2.30960840915074
  H           3.94224957424955      0.17710266525535     -4.04300141526304
  H           4.60985531808557      1.47262069606143     -3.06675391636534
  H           0.47473596363842      0.28669168280427     -2.84412572085710
  H           1.64887539750655     -0.58042597001048     -3.84771755310762
  H           1.73591872680063     -0.69269538150852     -2.08869496197107
  H           1.06066023317555      2.55741214912050     -3.83296795714315
  H           2.75755575289229      2.88772405966695     -4.23582046054560
  H           1.92958819288311      1.52215974245093     -4.97034182396435
  C           3.20357642571137      4.17659335389987      0.18261920790227
  C           4.40029624383364      3.75710877326552     -1.93302358954113
  C           2.12274996502973      4.78714185274683     -1.97178670676164
  H           3.97842780433699      3.59283636978556      0.67575684178358
  H           3.49380034739456      5.22571078796174      0.23189363253648
  H           2.27284595982508      4.06382134045242      0.73538995088374
  H           4.34438240590112      3.61077222882476     -3.00752915086265
  H           4.86652121180587      4.72783012773678     -1.76006179107170
  H           5.04972580089361      2.99890756948825     -1.49976335027453
  H           2.08460661966684      4.63115495700264     -3.04574949811583
  H           1.10879268542067      4.71799890509318     -1.57910804042814
  H           2.49549804921467      5.79480616863859     -1.78964964972481
  C          -4.23292546524669      1.84505974011257      0.29865067712638
  C          -2.86576108015953     -0.20634453680176      0.29184154716929
  C          -3.91167242852947      0.51097828039390      2.41353402339875
  H          -3.70468799237676      2.30616739318513     -0.53761729321810
  H          -5.01668070142638      1.20443663221200     -0.10551313557594
  H          -4.71183365589474      2.62198799673300      0.88876442290373
  H          -2.09642661484695     -0.79282817318304      0.79064300787674
  H          -3.73700319818633     -0.84220531635480      0.13307756821888
  H          -2.48121097249612      0.11034198582504     -0.67581503590170
  H          -3.23109817848831     -0.11140359900044      2.99044335039332
  H          -4.26726554314241      1.31559890514214      3.04564888879994
  H          -4.77328317866184     -0.10112296367252      2.14530519186209
  C          -0.82123614772564      4.18362167254634      2.86632165070917
  C          -2.47478826878043      4.66974833176778      1.07377153925275
  C          -3.20136387767254      3.64021664335470      3.23322229361723
  H           0.03403834449976      4.09211536009788      2.19966743112238
  H          -0.93094017466007      5.23657264734529      3.12353716219421
  H          -0.61178146531674      3.63606260213620      3.78321610153365
  H          -3.44398692715384      4.43817816335612      0.64141334895256
  H          -2.51467328143233      5.68375585962884      1.47065540640021
  H          -1.72919944322163      4.63776876276492      0.27990480193997
  H          -4.17590282462607      3.44681913677996      2.79494046834564
  H          -2.99731141827136      2.89671226677823      4.00133936249225
  H          -3.25151461875599      4.61377089563430      3.72199070303727
  C           1.23877727686027     -2.37588114358775      0.12230762972325
  O           2.36277157751467     -2.00307298192454     -0.14833591587195
  C           0.73612807695929     -2.33060219902300      1.51897200922879
  C          -0.56674783549012     -2.67896048290630      1.87261903785169
  C          -0.97143280881336     -2.60773212546843      3.19345876004398
  C          -0.08282628959377     -2.20543790189719      4.17856873316233
  C           1.21782966018107     -1.86999992048590      3.83924686293331
  C           1.62034678947185     -1.92663157692448      2.51952600979769
  C           0.30369985722659     -2.89602701397146     -0.93381380012803
  H          -1.27086439808818     -3.00514601912838      1.12336903709772
  H          -1.98521885605955     -2.87295757011748      3.45770927841375
  H          -0.40390574762667     -2.15942445287642      5.20896605386147
  H           1.91723704796075     -1.56701652127530      4.60395585836995
  H           2.63000158747427     -1.66535642212961      2.23855419820301
  H          -0.13057022953507     -3.84796872305714     -0.63922809456317
  H           0.84157286776145     -3.01390345891767     -1.87105637958859
  H          -0.49447923928913     -2.16882552771004     -1.07838183079895
