91
Coordinates from ORCA-job A3S E -114.978944432170
  Ru          1.98754579555973      4.29726777466351     -0.32543360925905
  H          -1.37133713726934      1.47903262280196      0.61366501751197
  N           1.69574404107485      2.85589618442632      1.19252117407156
  C           2.50888774280901      1.73792870814749      1.20778342925032
  C           0.82437496863528      3.03830981427752      2.19521896148697
  C           2.45864032516577      0.86002740397178      2.33994942590754
  C           0.75460926529092      2.21991385332486      3.30084825902636
  C           1.61873972372365      1.11435014583355      3.37785158346760
  H           3.12297654922125      0.00937354394260      2.34565240445777
  H           0.03974772839027      2.41421765988047      4.08365145241744
  H           1.58858546292810      0.47105585289647      4.24502646248186
  P           3.30959149157032      2.63818922993745     -1.17751629231478
  C           2.09851833209976      1.96635562345012     -2.48122872646753
  C           5.07143458268358      2.76047798763676     -1.81135424483671
  P           0.51113067722417      5.48607450453446      0.98726938135087
  C           1.25447690321886      6.65990339578472      2.27415550282368
  C          -1.05131059997118      6.24260810203890      0.21725771287332
  C           3.32171173020489      1.46671721897420      0.12734875497998
  H           0.61305267889536      0.17346044922063      1.14264211214463
  H           3.96603144368119      0.60050154502269      0.12344475239443
  C          -0.18870658146655      4.14205491609509      2.03628354280389
  H          -1.04794723465819      3.72282183740556      1.49655374445230
  H          -0.54819233207925      4.50078326623446      3.00359762921024
  C           2.20248428971805      5.55687870640512     -1.64344593059726
  O           2.30521857648703      6.36825399019544     -2.46411198921739
  H           3.17724219676931      4.87393004275688      0.42077074926534
  C           2.17749070907471      0.46094975638554     -2.70925391395588
  C           0.76543853469106      2.29499824736869     -1.78026009074387
  C           2.17872304732860      2.72529529385886     -3.80181019835169
  H           2.17417837015179     -0.06427541908256     -1.75511562013496
  H           1.31360107046007      0.12664880325853     -3.28417923807210
  H           3.07583212795350      0.18692588934376     -3.25590561407730
  H           0.77176516014581      3.34480774029769     -1.37641571532219
  H          -0.07209578995388      2.21959015370281     -2.47817793453377
  H           0.59300345192642      1.58462674465500     -0.96929885977129
  H           2.20253147347362      3.80207528416244     -3.62714326318309
  H           3.06618952084812      2.44242669160318     -4.36311033206496
  H           1.30882365823342      2.49545940166222     -4.41919382662195
  C           5.89198025016807      3.02451737811178     -0.54666327411732
  C           5.53535129557328      1.48062797774004     -2.49840097234586
  C           5.20662801586708      3.96855791444753     -2.73588795713151
  H           5.91955519299171      2.14624386548701      0.09427950111686
  H           6.91362537849370      3.29910746837101     -0.80458720227883
  H           5.43987211232417      3.84596835117423      0.01424962235599
  H           5.05396014330313      1.35790053811838     -3.46617608658799
  H           6.61240760848194      1.51811741255076     -2.66054254181923
  H           5.31344126908757      0.60976462822581     -1.88443452371292
  H           4.69454183797601      3.81620784366860     -3.68149170784694
  H           4.78805998759027      4.85076744093391     -2.24998829875844
  H           6.25838194959057      4.15746888461715     -2.94869886309697
  C          -0.70797418308269      7.61485678570238     -0.36060025760356
  C          -1.39445151914788      5.31265845435144     -0.95282561674528
  C          -2.26432701925301      6.33987806600457      1.14142142373715
  H           0.23492774308341      7.56832384806828     -0.90580006519652
  H          -1.48728935389993      7.93359726516145     -1.05251577930830
  H          -0.62772996811169      8.36755078681560      0.41907690753275
  H          -1.56004921362800      4.28677012554875     -0.61913917800109
  H          -2.30510989833661      5.65027321784404     -1.44678161830831
  H          -0.58879702096833      5.32302957933381     -1.69053930074021
  H          -2.58006060775436      5.36153285447912      1.49644396539987
  H          -2.07314733627272      6.97282756429809      2.00086915514351
  H          -3.09612385560229      6.77426523933265      0.58648732391375
  C           2.15200727501647      5.78469178852632      3.15574160916086
  C           2.13849285658505      7.66400241649111      1.53194870209886
  C           0.25356379357106      7.39341211768244      3.16407107224247
  H           2.79723652761473      5.15968620667768      2.53551210015139
  H           2.78732890794117      6.41604370742449      3.77499770305838
  H           1.57235393150457      5.14249846868066      3.81503090888670
  H           1.55003331967677      8.39241019024729      0.98207029748192
  H           2.76558714911485      8.20281525471891      2.24053698319493
  H           2.78415630013434      7.13452829080062      0.82828582856180
  H          -0.31167191194011      8.13711178584511      2.60848682765010
  H          -0.43774903934424      6.70395854967531      3.64527870987557
  H           0.79922001851986      7.91545684036784      3.94980092484691
  C          -1.30960539154177      0.40001153428700      0.85287968804873
  O          -0.04033139616296     -0.08668498552820      0.47734724895548
  C          -1.60180108571774      0.21873996645050      2.32292139576880
  C          -2.43786028045088      1.10602806432689      2.98685098904928
  C          -2.71584012273346      0.93515841733237      4.33049727170203
  C          -2.15872365028658     -0.12574065662280      5.02457513241691
  C          -1.33183947664144     -1.01922200266318      4.36641717283480
  C          -1.05743317024387     -0.84983782164195      3.02134262538691
  C          -2.35252552959591     -0.34322765545730      0.01589041221364
  H          -2.87217882647545      1.93691601349025      2.44725182047181
  H          -3.36467981484289      1.63363893934803      4.83925994307977
  H          -2.37035838103957     -0.25516147034775      6.07577943919906
  H          -0.89866563892733     -1.85128441352840      4.90210603446834
  H          -0.41429971359809     -1.54740633396712      2.50419389162601
  H          -2.32114479627994     -1.40203699091419      0.25822123591915
  H          -2.12701790213452     -0.22133990067621     -1.04031725052515
  H          -3.34654871443561      0.04323722151277      0.22372997372168
