91
Coordinates from ORCA-job TSA2S_3S E -114.929417011630
  Ru         -0.23973595087517      1.19864894308702     -0.62325000094112
  H           0.18298183757206     -1.77718883503606      0.16116424719076
  N           0.90763625128611      0.41040678331447      0.90630424486015
  C           2.24788673519721      0.17216739418518      0.67937472199371
  C           0.38145853198941      0.02180661062745      2.06434708614482
  C           3.03770029078310     -0.43975867174745      1.70969733568855
  C           1.13440989972128     -0.44922019484717      3.12913307031274
  C           2.49740182303583     -0.67225690500709      2.94587778815730
  H           4.08498039402313     -0.61420314843993      1.50803159937801
  H           0.64980125619978     -0.70638669201936      4.05761863983569
  H           3.10011134163280     -1.06657021955919      3.75312847901889
  P           1.73995075285779      1.14368905785815     -1.77090128681283
  C           1.68178677501206     -0.12916937281539     -3.17749476545043
  C           2.65151665709847      2.71426919896431     -2.29643090959768
  P          -1.92182148070897      0.93674268525594      0.89685055655066
  C          -2.48196876086621      2.42691204288455      1.91175349710338
  C          -3.36871486519885     -0.14220849966694      0.34335862102994
  C           2.80269499373858      0.45883014052474     -0.54449993817702
  H           2.54523024560632     -2.21894959006743      1.06565800527718
  H           3.85262663520880      0.27395088373987     -0.72263261793084
  C          -1.10751698643714     -0.10861271740346      2.16061921285604
  H          -1.29515361521596     -1.14860352430336      1.86769416539678
  H          -1.48362036234148      0.03754538061001      3.17578239694288
  C          -1.27027749360366      1.78270080983877     -2.02320950576067
  O          -1.92989571340127      2.12927103440062     -2.91045733042151
  H           0.00930974925128      2.62940406357705     -0.21333298846372
  C           2.93666054478918     -0.99765594296668     -3.19740220439553
  C           0.47393145268493     -0.99396253074352     -2.80510331478713
  C           1.41349442182747      0.48489624416006     -4.54878721424150
  H           3.04415232820347     -1.51649331005807     -2.24611345553492
  H           2.85842378135932     -1.74167033893173     -3.99105808079371
  H           3.83074559722978     -0.40439453186242     -3.37457871505279
  H          -0.45043363514741     -0.42540717099969     -2.94936384312695
  H           0.42297994136645     -1.88226193029938     -3.43768894725124
  H           0.52454079593888     -1.32473610767606     -1.76733123112068
  H           0.56486081974628      1.16576360420061     -4.49784497905022
  H           2.27713912510941      1.02109389092539     -4.93344631273830
  H           1.17037962671197     -0.30700933210122     -5.25860405342840
  C           2.90806694447428      3.45359281482388     -0.98024380766910
  C           3.98484476423533      2.44617543703978     -2.98802419632831
  C           1.73445356786754      3.57357669792822     -3.16330262458406
  H           3.63143082577227      2.91968016797672     -0.36711281798462
  H           3.28927629266568      4.45478903740207     -1.17517968733417
  H           1.97495251458887      3.53753033427258     -0.41786051073264
  H           3.85111853296688      1.98676215153996     -3.96361354023316
  H           4.51468046142049      3.38782393976850     -3.13210042862594
  H           4.61174892298798      1.79811416517357     -2.37886997960594
  H           1.62157087285936      3.16528450440816     -4.16284283916332
  H           0.75044552109316      3.63825495518758     -2.69550768285585
  H           2.14209582600822      4.57986809912230     -3.25492045135233
  C          -4.45880806606254      0.71411537660287     -0.30125341726592
  C          -2.74735339880909     -1.02918368985970     -0.74355029271401
  C          -3.96420235065099     -1.02221209213020      1.44315485209444
  H          -4.01435891436012      1.43338189790162     -0.98916136891574
  H          -5.13960896055729      0.07770315436526     -0.86684247612317
  H          -5.04320916034107      1.24974651097182      0.44314572971345
  H          -1.77361012894657     -1.41710144115906     -0.44242221107297
  H          -3.39621038110587     -1.87712235856579     -0.96344759442297
  H          -2.61366258387704     -0.45536331006757     -1.66314370602359
  H          -3.26687820901181     -1.80008768514790      1.74721535912564
  H          -4.24481060198365     -0.44400191527609      2.31920325423852
  H          -4.86011839865707     -1.51190634755903      1.06064511395731
  C          -1.21669211246956      2.91400342892141      2.62637673089696
  C          -2.93276804879943      3.51558351979645      0.93777784815765
  C          -3.57230663298374      2.14256416104646      2.94096018570683
  H          -0.38935106528859      2.97458972616562      1.91420323055192
  H          -1.38244706887214      3.90653798134051      3.04288514265711
  H          -0.92827125028466      2.25184120993067      3.43982804624601
  H          -3.88920035631322      3.27710747758672      0.48255455849843
  H          -3.03516140269374      4.46653836542104      1.45885083089828
  H          -2.18731157781962      3.62771868800162      0.14733772923443
  H          -4.51507269955339      1.88473740362442      2.46559071182753
  H          -3.28621095982845      1.33665635825394      3.61481420184746
  H          -3.73713999304779      3.03579890700092      3.54339196623669
  C           1.33218697275945     -3.47997489902377      0.26314639638691
  O           2.48886811195944     -2.89044694051361      0.33465715029582
  C           0.56630469016761     -3.81406391828185      1.44240970018454
  C          -0.78032675659046     -4.18331662089913      1.33937999705681
  C          -1.53571643440996     -4.38835068249337      2.47299579631683
  C          -0.96410229374346     -4.25910719833861      3.73100766946730
  C           0.37763275319125     -3.93015388986786      3.84505683745542
  C           1.13603989450994     -3.70311228359865      2.71597608234248
  C           1.02347568773627     -4.11017372676748     -1.04967256608441
  H          -1.23968075213580     -4.24092363002012      0.36594767073400
  H          -2.58145214726698     -4.64434969956547      2.38123680037249
  H          -1.56230638848127     -4.41309081908257      4.61663183021307
  H           0.83162466264723     -3.84192154425785      4.82113480992819
  H           2.18203553441366     -3.45107897713871      2.81842953423631
  H           0.91159871067382     -5.18715742448159     -0.92918138173868
  H           1.82506676361719     -3.88764881490116     -1.74908231543486
  H           0.09317652494446     -3.70960576418011     -1.44547184327326
