25
Coordinates from ORCA-job NEB_product E -50.862936830530
  C           2.31254647456600     -0.70513779280315      1.27299939169572
  C           1.14357318035225      0.22672782522363      1.49715185036730
  C           2.28853686894609     -1.15257611006779     -0.19832552805475
  H           3.25702466572209     -0.19703597652480      1.48808586654337
  C           1.51281533790873      1.58756734140001      2.12282720350208
  C           2.16640592994405     -1.86392645140848      2.28968426110928
  C           1.08409977992697     -2.83963859795006      1.95673689086290
  C          -0.07644852069707     -2.86675833523165      2.58403755053163
  O           0.01069339487542     -0.02673401787432      1.21597912734833
  N           3.48695026715196     -2.55954998402286      2.43652607424294
  H           1.97954114344676     -1.42144928801573      3.27695385630585
  H           1.30148243626591     -3.53580255047028      1.16069362893592
  H          -0.31046150948515     -2.18553254503503      3.38541034284585
  H          -0.84681260297616     -3.56563949993455      2.31184957113326
  C           3.45428476589341     -2.05992113906124     -0.56934869200386
  H           2.33578661729027     -0.24964839629908     -0.81106458112162
  H           1.33694002880700     -1.64255814698381     -0.40760384284112
  H           4.40051985500238     -1.61189936622779     -0.27437958925407
  H           3.46987129335148     -2.20879447516886     -1.64591479914242
  H           3.37254144640305     -3.03830334541265     -0.10326265667119
  Cl          2.38352305593701      1.32443685437659      3.65096663507988
  Cl          2.57739834702487      2.42927347503467      0.97102318862914
  Cl          0.07154101559491      2.56166325815800      2.42227810043693
  O           4.46507681932350     -1.86204053286344      2.52063856543123
  O           3.47126990942429     -3.76062220283732      2.50525758408743
