17
Coordinates from ORCA-job NEB E -41.751626350960
  C          -0.26775821908903     -0.87772538806314      1.17550673771848
  C          -1.04552608872329      0.21341579764518      1.57642331938890
  Br          1.47859780379076     -0.99060324733560      1.94698298214417
  H          -0.72792733410357     -1.85650738079704      1.10074599999466
  Br         -2.96634218147395     -0.01026375882917      1.23729230764492
  C           0.02261405128969     -0.27489782104881     -0.67836353506951
  C           0.55367981550393      1.00472338150814     -0.50931036637515
  C          -0.27012565996183      1.99317134760544      0.08621174446039
  O          -0.60784581574732      1.39361274330406      1.59951119005746
  C           0.87684011702987     -1.32780557075870     -1.34651189806110
  H          -1.01243896703294     -0.37575673978071     -0.99831001862975
  H           1.62725973163819      1.11198541085002     -0.44417924345796
  H          -1.28543032899538      2.08808554010488     -0.29092632342454
  H           0.19090364089778      2.94262681541760      0.32371762277122
  F           2.18353134141226     -1.18204299672541     -1.12897016087030
  F           0.54873208593773     -2.57244213885874     -0.97143227965630
  F           0.70123600762709     -1.27957599423798     -2.67838807863559
