17
Coordinates from ORCA-job NEB_product E -41.798551292660
  C           1.96804566353599     -0.87077460441350     -2.32494283150647
  C           0.58785259639332     -1.46876622687576     -2.35241876328034
  Br          1.88913247016032      0.36206390228930     -0.79907301966660
  H           2.73576783661504     -1.60650833457259     -2.07511691619914
  Br          0.44010311106765     -3.01589471615748     -1.18522956134025
  C           2.29814035318362     -0.10849010471988     -3.61081031791710
  C           3.48795220770751      0.79894373109789     -3.44331937019385
  C           3.45454847756233      2.09104024528302     -3.70349825617599
  O          -0.35347746106723     -1.06234184389824     -2.93760681493296
  C           2.61311071824630     -1.13055951770392     -4.70576832404640
  H           1.42147864129973      0.46271562463727     -3.93834634458192
  H           4.38967951815859      0.31512157435847     -3.09421472029404
  H           2.56148699958136      2.58178737029485     -4.05298258891162
  H           4.32377362403142      2.70974720901124     -3.57080770965573
  F           3.71208476195190     -1.84434952830583     -4.41883405421383
  F           1.62572216843772     -2.02167458262872     -4.88036880277721
  F           2.82199831313442     -0.54326019769612     -5.88456160430655
