17
Coordinates from ORCA-job NEB_reactant E -41.778095815680
  C           1.41443239630360     -0.01774125260709     -0.19170307563011
  C           1.18362313753977     -0.17434287826210     -1.48973836704344
  Br          2.10036596610016      1.59021129175105      0.52062048793795
  H           1.21119483882468     -0.78532726097694      0.53401186351766
  Br          0.43330209294974     -1.85904266888095     -2.05394165643576
  C           2.49498956988937     -0.52616294891212     -4.76280265027697
  C           3.21016168624419      0.30097287833348     -4.01934594870710
  C           2.69119725651676      1.06205197723470     -2.84117890010799
  O           1.35889876675608      0.70558504035090     -2.47884984307743
  C           3.06574247293817     -1.25418407884691     -5.93779594355679
  H           1.45086776171665     -0.73550634866533     -4.58660959927493
  H           4.25157477742819      0.48921463601439     -4.24305667854890
  H           2.65612983999184      2.12875547161399     -3.09087198545391
  H           3.37682563870807      0.93532344637151     -1.99582991373265
  F           4.34469592386341     -0.93791659356311     -6.18874848848639
  F           3.02832115620557     -2.58649307879471     -5.76997913100109
  F           2.37927671802377     -0.99549763216075     -7.06328017012215
