20
Coordinates from ORCA-job NEB E -45.467887918070
  C           0.83420615429493     -0.32936125309224      0.83344899478903
  C          -0.36940007933299      0.09138681565197      1.43688183774273
  Cl          2.22143898665337      0.71841066599842      1.02685929735226
  H           1.12211066599659     -1.36726813664605      0.96959394811793
  C          -1.37722518008315     -0.94413331953425      1.87470457787253
  C           0.42043098651982     -0.16279580986209     -1.00496182289614
  C          -0.02357996332996      1.16279188223293     -1.08490826171920
  C          -1.17280643758577      1.54859543109194     -0.32727440644198
  O          -0.80421341891226      1.29497805980984      1.20128598085127
  C           1.64449305255744     -0.56963496951627     -1.79738029520288
  H          -0.33357521886716     -0.94419547420191     -1.02795818119908
  H           0.69342808301459      1.92394102823966     -1.35693447139960
  H          -2.05457584026018      0.92300671186455     -0.44993526845955
  H          -1.41190740720153      2.60586740246783     -0.33784221565587
  Cl         -2.19638893015864     -1.75705665758071      0.47188128580448
  Cl         -0.60028720211759     -2.22105644491448      2.82527030948442
  Cl         -2.63794598385402     -0.17516070437140      2.84470411734488
  F           2.48098746120633      0.48424270437990     -2.03779967865823
  H           1.33140054784069     -0.94817163072818     -2.77834059793120
  H           2.23340972361949     -1.33438630128946     -1.28129514979579
