20
Coordinates from ORCA-job NEB_product E -45.504540778290
  C           2.04557513214359     -1.02794734392277     -2.28464229983152
  C           0.78248650132721     -1.85253362674408     -2.20438079901525
  Cl          1.73468440527807      0.22956471551609     -1.03983386163897
  H           2.92921423703426     -1.58274381025762     -1.96567943265673
  C           0.88691618315720     -3.10214701536929     -1.31142356689042
  C           2.24538956015903     -0.36958094665005     -3.65016975514840
  C           3.37255106849729      0.62262010938250     -3.59207675785251
  C           3.24600276949262      1.89651741228300     -3.90651015994940
  O          -0.22850916885244     -1.59709451048887     -2.78578333437335
  C           2.55063162547565     -1.45587679726702     -4.69132002969792
  H           1.31929709711116      0.13561692784554     -3.94119679037612
  H           4.32603771411902      0.21671506484047     -3.28140931502758
  H           2.30398861713523      2.31204927130864     -4.22281428841875
  H           4.07984201286231      2.57509310353212     -3.86516366700488
  Cl          1.86584884280338     -4.23171784962121     -2.29867133794177
  Cl          1.71440998692101     -2.79828951449743      0.21839945685434
  Cl         -0.70235839725653     -3.80162353896886     -1.01327851076084
  F           2.64991710386224     -0.88921336587298     -5.93179970016991
  H           1.74731437332260     -2.19779414491754     -4.74386785738844
  H           3.50796033540707     -1.94851414013065     -4.48847799271157
