20
Coordinates from ORCA-job NEB_reactant E -45.497972769010
  C           1.77179661249672     -0.08829483401386     -0.13953073351219
  C           1.58438825683140     -0.94808000079995     -1.14285101138341
  Cl          2.31493735195629      1.54028049101181     -0.25622280749087
  H           1.56290787061319     -0.38142118479242      0.87486073670472
  C           1.07981901152356     -2.35077874943627     -0.87519342111518
  C           2.47848069672285     -1.16760917242842     -5.09294464197343
  C           2.85638764553033     -0.07690149039226     -4.44994956741460
  C           2.55151915796345      0.22298745159599     -3.01498990889152
  O           1.78209295090640     -0.83890069491060     -2.46927720246496
  C           2.79147503524218     -1.45166557273983     -6.52550290456680
  H           1.90335084905659     -1.93714659722433     -4.60136531682683
  H           3.43101202363585      0.68981851021200     -4.94970388323584
  H           1.99633506415409      1.16750651078831     -2.95158412555327
  H           3.49075024673735      0.33433731263449     -2.45896029153463
  Cl          2.40231927664034     -3.49379250029432     -1.24212144450118
  Cl          0.54383292141549     -2.63347589918732      0.77674136423139
  Cl         -0.27905959924953     -2.69586710837639     -1.96879312898511
  F           3.52495965234545     -0.44793832167370     -7.10602998200007
  H           1.87072319205417     -1.55180574397690     -7.11393474801728
  H           3.38227178342385     -2.37135240599604     -6.62134698146895
