17
Coordinates from ORCA-job NEB E -37.325049830760
  C           0.83543242009285      0.75370934322804     -0.89094868430737
  C          -0.00506397882014      0.13085144942219     -1.84458508205704
  I           2.90897085897854      0.52253782350526     -1.30159752250893
  H           0.63781418351560      1.80363542253686     -0.72148843616298
  H           0.36274284880921     -0.73797499938902     -2.39615452851777
  C           0.18110529185162      0.16994870270519      0.76713276366411
  C          -1.14755078832247     -0.29481659613183      0.55295369598713
  C          -1.97524013211474      0.49431617627730     -0.25723645002460
  O          -1.26234948743894      0.30211145382483     -1.79604731050714
  C           1.08789315022455     -0.83475127701861      1.44522101859490
  H           0.25566222630676      1.13292421303551      1.26653426681970
  H          -1.29036314250312     -1.36616561275201      0.49650695490916
  H          -1.91713556652120      1.57160299293725     -0.14250212669766
  H          -2.97161307527731      0.13767851379186     -0.47622013091155
  Cl          0.25337950670552     -1.48225879552232      2.89796450609827
  Cl          1.45156178247027     -2.20228060483205      0.37763481992273
  Cl          2.59475390204299     -0.10106820561846      2.02283224569902
