21
Coordinates from ORCA-job NEB_product E -44.883744272180
  C           1.43092367480414     -1.32878947982117      1.29299202031440
  C           2.59690365923406     -2.18889189569759      1.73481107196028
  C           1.44524887703682     -0.90569229024681     -0.17348488659548
  H           1.49779421515318     -0.40854169642076      1.88734357984084
  Br          3.11964202156221     -3.60619899596816      0.55156737149382
  C           0.14773804244283     -2.08125180213456      1.76505803124584
  C          -1.11085937871749     -1.35375657087334      1.37319809988808
  C          -1.77872493619746     -0.56493424407314      2.19290205069567
  O           3.14257081358619     -2.07801113551150      2.78041697121470
  O           0.20422307933749     -3.38673616448674      1.24188320313778
  H           0.20972546007316     -2.12316983196376      2.86853541694938
  H          -1.45183618144878     -1.54644151499328      0.36666976319919
  H          -1.44619514624481     -0.37873354849826      3.20131541617205
  H          -2.67880025320857     -0.06301092575335      1.88478258795859
  Cl          0.85112693182654     -2.11931158756111     -1.30172845917577
  Cl          0.44754138380859      0.56495690497477     -0.36063349708105
  Cl          3.11920395051782     -0.45436400085452     -0.62344285286077
  C          -0.73342455137999     -4.26994568688958      1.80799094675102
  H          -0.58569860385376     -4.35609015180841      2.89121774357991
  H          -0.55732362102668     -5.23378895127704      1.33637962248998
  H          -1.76037943730547     -3.94429643014167      1.61422579882154
