21
Coordinates from ORCA-job NEB_reactant E -44.882886298580
  C           1.40724167632493     -0.62347865434403      0.19719072895536
  C           2.04621157594359     -0.80924739453353      1.35675498738673
  C           2.03436670359478     -0.62335598299691     -1.14318585435017
  H           0.34356137485812     -0.44756178608623      0.20235371211574
  Br          3.91124192722510     -1.09672939318168      1.47538923210898
  C          -0.76850375908948     -3.01131327087672      3.23609570059595
  C          -0.56482572039161     -2.01437797001960      2.37747329290822
  C           0.13071457603211     -0.75785150567675      2.79587983724739
  O           1.55072096317411     -0.82273108933984      2.58658128925154
  O          -1.33997082073290     -4.20306598497163      3.01480812843179
  H          -0.47689462612492     -2.92586140745365      4.27533773374518
  H          -0.84238983203503     -2.09953994756001      1.33948042382682
  H           0.04524346848386     -0.60880448095194      3.87383322081169
  H          -0.27041176064197      0.11822742106290      2.27495934631853
  Cl          2.81954007490491     -2.19255346014503     -1.51095685106694
  Cl          0.79078988016480     -0.34231048813103     -2.38066418687063
  Cl          3.27202026333184      0.66196738614398     -1.31489964525178
  C          -1.75986798908054     -4.50392912362312      1.70104938457814
  H          -2.16717307556429     -5.51209958173710      1.73993142446788
  H          -0.91905839245566     -4.47492330833609      1.00201203278623
  H          -2.53475650792173     -3.80825997724199      1.36617606200334
