20
Coordinates from ORCA-job NEB E -32.623393756410
  C          -0.14776087344249     -0.54689675279804      0.63851545250292
  C           1.22836754178316     -0.36654884166596      0.58398088250380
  C          -0.85531333757068     -0.93546439283056     -0.63331920212631
  H          -0.53524539919004     -1.01697398898192      1.53709433128303
  F           1.88563224553486     -0.42129180864828      1.79657380037133
  C          -0.54026803512721      1.40548749332167      0.92398345010506
  C           0.07255701623949      2.00814561136424     -0.16246802415532
  C           1.48558091104411      1.92285061233321     -0.23707963654236
  O           1.82155513921153      0.27972501494574     -0.32583982400566
  I          -2.64344305710541      1.57187585679775      1.14718851073494
  H          -0.06796459322432      1.46214271861546      1.89543539313578
  H          -0.48882502412227      2.16141524831601     -1.07199206666256
  H           2.04361499971137      2.15433334080001      0.66491810567000
  H           1.95578697333371      2.29568660078598     -1.13711241466071
  C          -0.74540099116829     -2.44413146134107     -0.84920025865551
  H          -0.40051530879671     -0.41330460000239     -1.47665103327814
  H          -1.91057324200264     -0.66500929582138     -0.57849107699588
  H           0.29796138357810     -2.74444703501978     -0.91041304527972
  H          -1.24208628831382     -2.72235413264592     -1.77498902627658
  H          -1.21366006037248     -2.98524018752476     -0.03013431766811
