20
Coordinates from ORCA-job NEB_reactant E -32.649341009580
  C           2.67106720702382      0.10600719765306      0.31245365892730
  C           3.21629004437711      1.04883210381894      1.06315308496250
  C           1.34056949779363     -0.51295127523610      0.59864010953484
  H           3.23776255663099     -0.27076189391426     -0.52374534873066
  F           4.42978543443273      1.56822780170381      0.72808813628464
  C           1.20946330261741      4.65378953776932      1.85579210058062
  C           2.12734036144821      3.78881847724992      1.47487800735291
  C           2.90406319751118      2.94413177562349      2.44137192108047
  O           2.70376204967812      1.55572740358882      2.19708259038146
  I           0.11748318009548      5.83975462064391      0.50837083962879
  H           0.95568727854422      4.83589486214208      2.88641711837966
  H           2.35324019642435      3.62617097285498      0.42980152329885
  H           2.56650738679580      3.10025897036832      3.46755849390045
  H           3.97213435328643      3.18988472029496      2.36897922218558
  C           1.49216673571537     -1.97248043606196      1.02638739367850
  H           0.72650279786527     -0.46726969388987     -0.30448214581648
  H           0.84280776330519      0.05167497790499      1.38761360924210
  H           1.98933761006683     -2.54790768702219      0.24892544397336
  H           0.51637379342533     -2.41370524292177      1.21337826400585
  H           2.08345525296253     -2.03839719257043      1.93623597714924
