20
Coordinates from ORCA-job NEB_product E -32.669685105770
  C           2.41378184952436      1.17418404546366      0.34962651588027
  C           1.21968406237059      1.40858741530310     -0.53476579516346
  C           2.27767944502397     -0.21851803232807      0.97886230697082
  H           3.30242420629299      1.20965003357067     -0.29240176906978
  F           1.43264160539001      2.47573965327019     -1.36401471923943
  C           2.45546246244453      2.37838882055884      1.31184107927275
  C           1.51771161763041      2.27039279979640      2.45937790743492
  C           0.51607653976182      3.11063063159411      2.64830664256649
  O           0.19033740768041      0.83930467559762     -0.58946372093502
  I           4.48083915057250      2.74113273794511      2.06830888413339
  H           2.24968035402170      3.28814878509151      0.74454990751936
  H           1.70317168967854      1.46789456556354      3.15881800134781
  H           0.31906627124806      3.92594182731668      1.97093146823598
  H          -0.15268781609794      3.01272269003508      3.48526974754735
  C           3.48172525631156     -0.66507068194545      1.79707393720015
  H           2.13029622055351     -0.92392817366627      0.15711645808583
  H           1.37282139450486     -0.24947023051625      1.58830674800179
  H           4.40125231130839     -0.55418984737840      1.22658482353341
  H           3.37075348838847     -1.71382554528137      2.06150132832160
  H           3.57788248339123     -0.09931616999070      2.71937024835575
