19
Coordinates from ORCA-job NEB E -40.109034353040
  C           0.90130928065416      0.39227448932885     -0.31260505189397
  C           0.04121914094602      0.92878860408456      0.68324619792962
  C           0.70365387957018      0.84775612291129     -1.71145498134042
  H           1.95991546458838      0.37587720756467     -0.05864955004735
  N           0.53682638442422      1.10656205083392      1.95001960180510
  C           0.34420595998463     -1.52284565750547     -0.01529806617544
  C          -1.03606870764990     -1.50587406236151     -0.20676679985024
  C          -1.80784462473379     -0.71906785628243      0.67248844036111
  O          -1.22846609345429      0.89358262110762      0.53049550532832
  Cl          1.32031140096965     -2.52942364349856     -1.04126895062266
  H           0.72928314379713     -1.52553394214659      0.99981650774079
  H          -1.43554350469070     -1.76346862130582     -1.17458022532059
  H          -1.61342037620649     -0.81689675026715      1.73489534081623
  H          -2.85200486131626     -0.58513394284061      0.42764503596159
  Br          1.24449588448655      2.80712745119547     -1.77205694645896
  Br          1.88344541643644     -0.02134853924363     -2.98788976777793
  Br         -1.08881725249151      0.79216544315678     -2.41189310435731
  H          -0.10643783946232      1.49013649993094      2.62423543940174
  H           1.50393730414790      1.35532252533766      2.06962137450036
