19
Coordinates from ORCA-job NEB_reactant E -40.146410461890
  C           1.68520046853811      0.06190616926589     -0.01139189967928
  C           1.14727612894352     -0.84872605422677      0.83580974059379
  C           1.94663168819627     -0.29367728893559     -1.40107813261733
  H           1.93672545019177      1.05143800368511      0.32698853494793
  N           0.78093031277552     -0.55255293125712      2.12167815697745
  C           0.08509001317674     -5.35269370290315      0.24548321743249
  C          -0.26493287828170     -4.08537065586850      0.10280529026062
  C           0.13858464677822     -3.01580703598254      1.07031587465851
  O           0.91241043613953     -2.07407764658849      0.34125498745919
  Cl         -0.37845724751639     -6.57244324275492     -0.86084981591604
  H           0.67143032749663     -5.71834954980745      1.07571975755961
  H          -0.83268464710977     -3.74919976135932     -0.75150006477737
  H           0.73112786948376     -3.44346564296465      1.89011644260722
  H          -0.75432937313864     -2.52241900353485      1.47654192980587
  Br          2.64955446826944      1.20887112500956     -2.40166353418227
  Br          3.26147851457136     -1.78939337358789     -1.57171844367408
  Br          0.32288334161002     -0.92746200896693     -2.35067800257527
  H           0.80983370722832     -1.29792689967283      2.79869616810364
  H           1.09954677264728      0.33764950045045      2.46676979301530
