20
Coordinates from ORCA-job NEB_product E -28.447545519640
  C           1.42257354029486     -0.36539319906857      2.24575855718731
  C           1.11839785862013      0.78047387549585      1.33743777385938
  C           1.21850194673280     -1.67063141107432      1.47876903565618
  H           2.46490628242109     -0.29065425563440      2.57368398545488
  I           1.96642147586863      2.66785162479968      2.05512410094354
  C           0.52807095651749     -0.22485554138062      3.50954226824501
  C          -0.92771656700959     -0.20361916203731      3.14211497740712
  C          -1.68046686536679      0.87917870417874      3.17869796867179
  O           0.49646879599468      0.79319039155395      0.33721241800176
  C           0.81658184210882     -1.33679082189508      4.51652452048058
  H           0.78209522286578      0.73169937598259      3.97993804883206
  H          -1.35053280392348     -1.15268683482595      2.84188290408153
  H          -1.28828156127344      1.83668814865900      3.48243795978561
  H          -2.72174119268213      0.85867646784545      2.90706843169106
  H           1.46443280774391     -2.52067766111513      2.10801720398031
  H           1.86819195952031     -1.69191475572168      0.60610193470695
  H           0.19162144848912     -1.76120581064326      1.13600832163798
  H           0.48819712950824     -2.30306646126383      4.14279214552362
  H           0.27955438869898     -1.13247651218949      5.43978547566830
  H           1.87962333487057     -1.38788616166564      4.74060196818504
