20
Coordinates from ORCA-job NEB_reactant E -28.424407290200
  C           1.92314810087877      0.17030143803812      0.07902266091234
  C           1.51593021974203      0.61927038393086      1.25553743913837
  C           1.94345921726561     -1.27802207138989     -0.28551025412463
  H           2.27666102493790      0.86599479826105     -0.66536626919745
  I           1.54122374230068      2.74987542891010      1.60595030484730
  C          -0.56823064023921     -0.41623404677771      5.25642298219029
  C          -0.27525558990401     -0.84149393819651      4.03906556920298
  C          -0.12591499459037      0.05757166763329      2.85488688076489
  O           1.17165886158174     -0.14116222757394      2.29690645248566
  C          -0.73049566158850     -1.29890422910124      6.44538350478501
  H          -0.72110132080297      0.64066863259774      5.43578282457614
  H          -0.10805019825355     -1.89082948389211      3.84051349573259
  H          -0.24530357516780      1.10819173198857      3.15150687041601
  H          -0.88403046195067     -0.17944970699721      2.09231340691070
  H           1.53765284222543     -1.88517534436701      0.51889177635179
  H           2.96687048304595     -1.59516943582019     -0.48296540764372
  H           1.36214971303822     -1.44145087434716     -1.19249059115528
  H          -0.55890377715787     -2.34058562035579      6.18760149807272
  H          -1.73523707343013     -1.19565835873662      6.85414332490844
  H          -0.02783091193127     -1.00633874380435      7.22470353082587
