19
Coordinates from ORCA-job NEB E -43.079844210150
  C           0.84669283051617     -0.65997364000840      0.63965062202369
  C          -0.45822605435825     -0.52454641107182      1.11255077275165
  H           1.60092635477911     -0.03372631532049      1.09587169469344
  H           1.19666450173308     -1.65356545751271      0.38786854411673
  C          -1.45555293023931     -1.63410811523295      0.99402275248906
  C           0.73456123519600      0.34598299714717     -0.99134153565325
  C           0.21393571740563      1.56854925060038     -0.57740787277085
  C          -1.06918102220939      1.57399613323684      0.07502499014034
  O          -0.95200055602855      0.67209210737880      1.33264886813384
  N           2.11141552083400      0.37018547857447     -1.48030388560490
  H           0.13339319751054     -0.35224478263043     -1.56724927838406
  H           0.91495454548990      2.36488089636372     -0.36754285390495
  H          -1.87690686286752      1.11249807879938     -0.49448007799910
  H          -1.37321589780258      2.53008975482659      0.48845066914757
  Br         -0.74781811837149     -3.33323542502817      1.61309392078254
  Br         -3.05398040259653     -1.19467201049895      1.99416808304046
  Br         -2.01831658567706     -1.89866581618752     -0.93461083502025
  O           2.88320148015596      1.10765847683085     -0.91735522029800
  O           2.36945304653028     -0.36119520026677     -2.40305935768394
