19
Coordinates from ORCA-job NEB_product E -33.681681977860
  C           2.64467590528603     -0.18777990506792      0.96993429235480
  C           1.24318803267208      0.04700185753725      1.54555527153738
  C           2.48483567443970     -0.73907025988584     -0.44655848154889
  H           3.18535065923628      0.76265122041276      0.92905787822584
  N           1.20984629972661      0.96358072268687      2.53689597181447
  C           3.39608744648981     -1.13269043689662      1.93084957950458
  C           3.10891639748974     -2.57880740372085      1.70374496555587
  C           2.41592540960840     -3.32022084451840      2.54740078613591
  O           0.26121835056029     -0.54573849409660      1.16860666554260
  Cl          5.17417341721865     -0.86824244774075      1.76883145947989
  H           3.15947164153460     -0.85624378028211      2.96255881027096
  H           3.52394950264664     -2.99933761456874      0.79929899404925
  H           2.00434002754693     -2.91603627468519      3.45766735109011
  H           2.22156235840877     -4.36061891073553      2.35498814797509
  F           3.69490803604662     -1.02737410879014     -1.01751464600503
  H           1.99939228880860      0.00602472121016     -1.08504492493014
  H           1.89063593064811     -1.65683787468353     -0.43851910336087
  H           0.32788768355425      1.16511749519999      2.97900660831759
  H           2.02493493807790      1.47012233862519      2.83304037399058
