19
Coordinates from ORCA-job NEB_reactant E -33.652510601700
  C           1.54049448193431      0.00358286993011     -0.08445725041873
  C           1.67962946615013     -0.05765640015627      1.24664101546115
  C           1.20914864583303     -1.18392725085740     -0.91907695238903
  H           1.71843761493257      0.93714557196235     -0.59181347882452
  N           2.04807941841647      1.01461089223128      2.03454416139485
  C           4.10193041039617     -2.17762172644735      3.93770411139493
  C           3.69997889157077     -1.60193060106626      2.81860213490842
  C           2.56099114268103     -2.12452763908151      1.99393745652534
  O           1.46730252773707     -1.21040625611744      1.96468284760527
  Cl          5.40011972922053     -1.56926021592068      4.88564936001256
  H           3.66418870192586     -3.08076451290095      4.33514182857747
  H           4.16164459831138     -0.69230500373577      2.46202238525054
  H           2.15215843199592     -3.03976670257324      2.42688951221979
  H           2.91364792254082     -2.32541815878846      0.97507928394387
  F           2.35861958676572     -1.79896988462195     -1.41232941920657
  H           0.62358186404478     -0.90656623709402     -1.80013768331042
  H           0.68573762252304     -1.94930101156133     -0.33787358190580
  H           1.80152287878459      0.92111599837794      3.00800173363048
  H           1.89358606423582      1.93066626842095      1.64609253513038
