16
Coordinates from ORCA-job NEB E -29.056557824250
  C           0.59142321254620      0.31921002466658     -0.92756573903581
  C          -0.82444930689460      0.43406709015648     -0.69878568886725
  Br          1.02977567111126     -1.31570116065272     -1.97130723477833
  H           1.00253694537168      1.15185955349137     -1.49539804834180
  N          -1.48645839110550      1.62223297061043     -0.92580316201545
  C           1.27878534330250      0.21329822549503      0.50864167458548
  C           0.65481942779436     -0.83764782555932      1.26357853397457
  C          -0.76758396755145     -1.16905787891179      1.05826565390085
  O          -1.47659364928051     -0.47103404604074      0.01442511830743
  I           3.49524212115218     -0.07749293078614      0.28642609969536
  H           1.25340054027032      1.22591538291575      0.90891799024853
  H           1.25177799892268     -1.64844757067376      1.64311063672172
  H          -1.36541799222890     -0.90537127511999      1.94200493619490
  H          -0.90480303725115     -2.24407190922607      0.88596541502405
  H          -2.47351099869388      1.58799706553332     -0.71622446125803
  H          -1.25894391746519      2.11424428410157     -1.77625172435622
