16
Coordinates from ORCA-job NEB_reactant E -29.095914239980
  C           2.12764361723908      0.21109748264944      0.20324948454027
  C           1.58084662178384      0.95240922906649      1.17670606581371
  Br          2.72940578875707     -1.58824912687883      0.28889805151540
  H           2.25845225035032      0.63663727276934     -0.77571984476573
  N           1.21249763158454      2.26375404599792      0.91397864426724
  C           4.15308073612712      0.44232322409032      4.43098845011710
  C           3.53763547329898      0.18179957489012      3.29559103382357
  C           2.09986058604974     -0.23824261457957      3.23200139972919
  O           1.30305265345355      0.66077678192885      2.47488437242172
  I           6.17183140925899      1.01476842138980      4.53718321758587
  H           3.68111091818787      0.36614384678961      5.39603139597750
  H           4.04688202403344      0.27327725769293      2.34728831495420
  H           1.64540950259848     -0.21649955476912      4.22590290622447
  H           2.02766779096271     -1.25786863999389      2.83693036473112
  H           0.59986291330050      2.64843831100237      1.61695860284867
  H           0.94116008301375      2.47443448795422     -0.03247245978431
