23
Coordinates from ORCA-job NEB E -36.682898672180
  C           0.04333281092326      0.08030563747399      0.68976179956824
  C          -1.15503859695097     -0.57419332174801      0.36944093506457
  C           0.11631835986137      1.59715446554064      0.60769255859818
  H           0.54958393900409     -0.30572812088375      1.57082575810587
  C          -1.38939872028467     -1.94479811527444      0.97906225024576
  C           1.14718565778633     -0.51135769882190     -0.78890475641333
  C           0.32492730139833     -0.99404857677129     -1.81167352440487
  C          -0.84748984857403     -0.22059987011599     -2.07082398459622
  O          -1.75309354087268     -0.33636349639013     -0.76105631326845
  F           2.02445813815531     -1.39727800127151     -0.25462974018437
  H           1.64034616315941      0.44723687358877     -0.91001144800210
  H           0.23296335663621     -2.07021103108799     -1.89061924815049
  H          -1.51954305568510     -0.60714236374474     -2.82827082119818
  H          -0.69156321358287      0.85105099329388     -2.17691287333829
  C           1.41317541547509      2.15322855647469      1.18433373625705
  H          -0.71812525669643      1.99259627742229      1.19350047422907
  H          -0.02170733073213      1.94761274117357     -0.41599337636085
  H           1.51723296127469      1.86509434371514      2.22785148189648
  H           1.41014045061490      3.23904710697109      1.12841737999663
  H           2.28505229070173      1.78885497319586      0.64598713777077
  F          -2.65087594984472     -2.39898363396317      0.71636714597549
  H          -1.26571661708709     -1.93112535987424      2.06610967253383
  H          -0.69216471468002     -2.67035237890275      0.52954575567521
