23
Coordinates from ORCA-job NEB_product E -36.736108921030
  C           2.41585285073508     -0.93680385211919     -0.85113427257240
  C           1.10166388933533     -1.66658098793507     -0.58886018055048
  C           2.15346331887410      0.56195250229991     -1.03703829744867
  H           3.09457396287941     -1.09947856755550     -0.00724906094058
  C           1.26988183143577     -2.94859303537389      0.20903995151296
  C           3.09167219919715     -1.55465821708687     -2.09871425976254
  C           2.15748561853158     -1.68758429646608     -3.26035009060843
  C           2.11617907881300     -0.83383846531618     -4.26521729964904
  O           0.04024602032796     -1.26944444207964     -0.98088188779818
  F           3.57728777266565     -2.80684765836216     -1.75016205792246
  H           3.97550090391630     -0.96373522702043     -2.36473596866326
  H           1.49223565844921     -2.53792423659197     -3.21672301805501
  H           1.41269997701391     -0.94680811094775     -5.07087791724555
  H           2.77832392691450      0.01498165295305     -4.32113360082160
  C           3.41993230211106      1.40638869100012     -0.98112895970371
  H           1.47614922379554      0.88397782147978     -0.24372686125045
  H           1.63704921904294      0.71461861028416     -1.98578530780150
  H           3.95380089699739      1.23800455395979     -0.04824178524919
  H           3.16167973059318      2.46048584368269     -1.03958495401419
  H           4.09012615759565      1.17941205512849     -1.80626833435532
  F           0.07940328214110     -3.59540319928122      0.37901359633771
  H           1.66375209234998     -2.72064170510010      1.20667053528036
  H           1.95094008628421     -3.63537972955194     -0.30580996871846
