21
Coordinates from ORCA-job NEB E -52.925640928310
  C          -0.66585702032459      1.32011318323688      0.95279755775446
  C          -0.22287223783046      0.02694600048936      1.29159906656206
  C           0.28064610297137      2.34329853812349      0.48920396092409
  H          -1.26897603831912      1.72215462850096      1.77053507357231
  C           0.78760974137363     -0.30147262779279      2.38413102364314
  C           0.13310069533502     -0.86596409340628     -2.36074531047667
  C          -0.64021298949005     -1.60099443405142     -1.56310494444666
  C          -1.44243362961193     -0.99873372884186     -0.44894852768227
  O          -0.64307245540628     -1.04957225481882      0.74534454262325
  C           0.90933233717521     -1.44268820658397     -3.38835762485037
  H           0.20910267024492      0.21026439319100     -2.27055462911441
  H          -0.67837530461633     -2.67630474928490     -1.66436787658785
  H          -2.33600420929418     -1.58954634118425     -0.23717274599174
  H          -1.68796300585654      0.05822381981775     -0.62674838964282
  F           1.32478759017528      2.69129348973893      1.31477978968214
  F           0.89117082404197      1.95031825957782     -0.65585645707909
  F          -0.34195364904273      3.49323543196756      0.21884869631316
  Br          0.78025992278535      0.93740414069740      3.85369987999376
  Br          0.59898699913712     -2.12988450124929      3.07100734141476
  Br          2.47523757468271     -0.19402145131836      1.35140110591355
  N           1.53748608186962     -1.90406949680921     -4.22749153252483
