18
Coordinates from ORCA-job NEB E -33.779153786370
  C           0.21857056346729      0.82768252678197      0.47422678079517
  C           0.33771593454910     -0.02419651520244      1.57293133419079
  O           1.26483757814377      0.92615412676482     -0.38718082341502
  H          -0.38481142723128      1.72530576345202      0.59211609920305
  Br         -1.05607082836532      0.33626325057339      2.93251892296380
  C          -1.05207379134939     -0.43089872011691     -0.62920585097855
  C          -1.17773001915201     -1.61585799669211      0.07132369166218
  C          -0.00394899649180     -2.29223070628469      0.42622456767365
  O           0.80581420392815     -1.17680560139882      1.56376299645442
  F          -2.14316085804692      0.33029790905041     -0.82254086464110
  H          -0.36466898867855     -0.34796327283939     -1.46434163075083
  H          -2.06958934693170     -1.75181931539285      0.66878290060101
  H           0.81363167173972     -2.30715862474858     -0.28163255597999
  H          -0.08292199194064     -3.17229965832687      1.04627996584989
  C           1.22024256429455      2.03255624894505     -1.26597033926676
  H           2.10641428202091      1.95630614681277     -1.89226809479497
  H           1.24372247397143      2.97508277350288     -0.71114714098606
  H           0.32402697607266      2.00958166511938     -1.89387995858068
