18
Coordinates from ORCA-job NEB_reactant E -33.811309283460
  C           1.22836617157150      0.01728706482866     -0.20440202099339
  C           1.11135357434234     -1.19435715097593      0.33648046272638
  O           1.57376933081961      0.19207270430641     -1.50298651513179
  H           1.05476637008911      0.90033223461747      0.39762805552794
  Br          0.54028803921220     -1.28392577159447      2.17853086809024
  C          -0.96100485881738     -3.32004157192090     -2.46669838456747
  C          -0.74202735590301     -2.81813816825842     -1.26708321940974
  C           0.34760106089908     -3.31007915545652     -0.36832814731326
  O           1.40924546593785     -2.36343569338777     -0.24682676689572
  F          -1.93254821187098     -2.85455110555080     -3.26123000485922
  H          -0.42182502307149     -4.13929798444150     -2.92046534673965
  H          -1.33738710718828     -1.98949987394340     -0.91056268044371
  H           0.82106572195779     -4.20565327415370     -0.77293348119576
  H          -0.05742976602343     -3.52752879616396      0.63081663993192
  C           1.77753201616106      1.53007463333693     -1.89816615999626
  H           1.99568555607145      1.49948418950181     -2.96361351903464
  H           2.62334871102336      1.97664197954341     -1.36593736813012
  H           0.88240030478923      2.13641573971268     -1.72662241156574
