20
Coordinates from ORCA-job NEB E -45.658365551380
  C           0.74083229685325     -0.59083303214621     -0.78970254867177
  C          -0.54085812457666     -1.12828333461197     -0.73538904200120
  H           1.51593647291619     -1.11695522309744     -0.25283822128782
  H           1.06890239507603     -0.13763564957640     -1.71436868625714
  C          -1.57372092184828     -0.77344885254670     -1.78025683821881
  C           0.56080632634929      0.85426843129250      0.49536635716197
  C           0.09214449402420      0.18750046564047      1.62024866324802
  C          -1.16121796007281     -0.51074397837058      1.51496585420046
  O          -0.99165828266688     -1.59837953123698      0.40324817058062
  C           1.93136344102136      1.48738760868375      0.55053238433286
  H          -0.13090568663665      1.44821269219420     -0.09166435326626
  H           0.81285267248391     -0.16778816336228      2.34321377545715
  H          -1.99381238079198      0.08785583902990      1.14906968544096
  H          -1.43732420088634     -1.10026576010584      2.38256375748991
  Cl         -2.21999396045108      0.90031627207643     -1.52353273533272
  Cl         -0.88959066529637     -0.82726487211139     -3.41111482833984
  Cl         -2.94470936530044     -1.89045191049383     -1.68530527083237
  F           2.87062880619255      0.61507996979828      0.98717682368503
  F           2.32959079793091      1.89374096247623     -0.67737529561874
  H           1.96073384567980      2.36768806646790      1.21516234822969
