20
Coordinates from ORCA-job NEB_reactant E -45.683938070610
  C           1.59462419516852      0.14568211775412     -0.01180960069204
  C           1.55106337575469      1.46298928900352     -0.15989579070420
  H           2.14852026163720     -0.32323599102997      0.77892866583293
  H           1.07132988004882     -0.50307974452066     -0.68558864089100
  C           0.78414939765726      2.16777634130770     -1.25183880866984
  C           3.25025441026708      4.41968392803080      2.08847377631860
  C           3.49899477931380      3.16322940901217      2.41460634602470
  C           2.93486984608410      1.97775353295049      1.70019773206218
  O           2.15386067016428      2.40524175416259      0.60485102587053
  C           3.82629843944905      5.59297752272755      2.81903487396752
  H           2.59152623910071      4.67757337072562      1.27436173883707
  H           4.15207528380090      2.92080805094780      3.24127969119815
  H           2.32011167563393      1.39221725885346      2.40011942404366
  H           3.75823773991709      1.33671009918585      1.35125178658232
  Cl          1.91191605520229      3.18098089587566     -2.19068923096699
  Cl         -0.03280536785399      1.07231724937853     -2.35975051822132
  Cl         -0.43730174563190      3.23244566421874     -0.50418835067774
  F           2.83847511008146      6.35263249443246      3.36285035495005
  F           4.62302484548443      5.21943299136638      3.84910799657747
  H           4.41807490872027      6.25406376561719      2.16239752855796
