15
Coordinates from ORCA-job NEB E -30.443441008470
  C          -1.08387242762003      1.01126839730267      0.07919285164832
  C           0.26318623297437      1.33063645822574     -0.09535336530215
  Cl         -2.05804172645631      0.86880785391004     -1.35472468931510
  H          -1.61116135397259      1.45496717214171      0.91247322192562
  O           0.87271542554826      1.90672288049904      0.96552469844135
  C          -0.83215635993149     -1.00088247111206      0.56286734927354
  C           0.46292386042251     -1.33041937441588      0.19293150022071
  C           0.87952467951645     -0.93603252459220     -1.09174860747948
  O           0.98677725011448      0.79866522853943     -0.99814319843397
  Br         -1.31512240021806     -1.18546120076890      2.39215350807593
  H          -1.66437554152618     -1.24034503401804     -0.08346217602974
  H           1.21351069579216     -1.41360372077938      0.96861164317485
  H           0.15771965880776     -1.00475366617291     -1.89623468910632
  H           1.89550151981817     -1.14823516559991     -1.39201307460865
  H           1.83287048673049      1.88866516684066      0.83792502751508
