15
Coordinates from ORCA-job NEB_product E -30.496890331400
  C           1.63891546922870     -1.35376368418546      0.76321963376865
  C           2.92509330515393     -0.50619159379566      0.86157030830615
  Cl          1.02706524020316     -1.24471897648984     -0.91225046086351
  H           0.86342305192039     -0.93919679148461      1.41645808956998
  O           3.30714037689620     -0.21277653882004      2.10345392729733
  C           1.86714686702709     -2.83528303736619      1.05895141734065
  C           3.04688274173585     -3.40717813533826      0.35577878296608
  C           2.97224930635839     -4.47539556851469     -0.41680870959217
  O           3.53302373752460     -0.13221572559697     -0.09216499582049
  Br          2.09975985610679     -3.06079812924381      3.02784207798394
  H           0.95874426076653     -3.39694965434981      0.83121091728773
  H           3.98555175024970     -2.89452934639735      0.51612260364717
  H           2.04241701122011     -4.99465278741521     -0.58379948141722
  H           3.83852284883538     -4.86456924033259     -0.92136378186234
  H           2.78896417677319     -0.63548079066949      2.80717967138805
