20
Coordinates from ORCA-job NEB_reactant E -52.719411414410
  C           1.64528209602275      0.11211205915447     -0.09060290902070
  C           1.58550501220184      1.20618721661119     -0.84884403620331
  F           2.22980853553131      0.08214010173542      1.11865306789031
  H           1.23737981902963     -0.84610940846310     -0.36590569609064
  C           0.96784317521400      1.20091040930440     -2.21117622727685
  C           2.85627144720499      5.04889786917180     -0.34241238205558
  C           3.20079825108369      4.16022593174596      0.57422369031812
  C           2.79250459049904      2.72545306799103      0.56281568642094
  O           2.06437722841478      2.45067130853537     -0.61988306805740
  C           3.28961969503350      6.47914593535816     -0.28042312176037
  H           2.23873533442128      4.81458001509066     -1.19505017609651
  H           3.81808590142451      4.43838844218408      1.41714809934707
  H           2.17801341912002      2.52273730295454      1.45033672562334
  H           3.68802510510591      2.09210992345611      0.61611843501386
  Br         -0.10629282469836     -0.34495998895896     -2.61693173225961
  Br         -0.14796512655769      2.78785468350575     -2.40310755841028
  Br          2.41780161874283      1.31819241347078     -3.53834680460649
  F           4.07104281412653      6.75338508487836      0.77405750769837
  F           3.98207012241488      6.83892357131281     -1.37394641879101
  F           2.24059378566454      7.31565406096116     -0.20652308168327
