20
Coordinates from ORCA-job NEB_product E -52.721755577730
  C           2.21729619258475      2.21418185978833     -0.67587753137436
  C           1.01210651753362      2.36019152978547     -1.61437567950006
  F           1.90323427956139      1.19678459053641      0.19138392003364
  H           3.13867110200259      1.91658445972885     -1.19162471967559
  C           1.16867001441502      1.79052065571581     -3.00860646534944
  C           2.41339768779249      3.50487677786849      0.13871452382582
  C           3.43202585129111      3.30034937328593      1.22833048798092
  C           3.14954820446961      3.41644423499864      2.51065726593270
  O          -0.02786151793859      2.81888284684762     -1.25014946462619
  C           2.87575821931026      4.62421607116602     -0.78800770627160
  H           1.44635079515000      3.79782582000376      0.56390508137215
  H           4.42497428517120      3.04411852072989      0.88644194687355
  H           2.16151817262473      3.66748660392089      2.85834155809087
  H           3.90065388709396      3.26035891602224      3.26407286081616
  Br          1.29843705395338     -0.14672198451197     -2.75118456265121
  Br         -0.38700016783193      2.20657405162511     -4.06270223405972
  Br          2.76364080968846      2.42890984051961     -3.90663070098802
  F           4.07576030363143      4.37110778141615     -1.32675481199845
  F           2.03407600864420      4.80745751755727     -1.82283847637904
  F           2.96564230085232      5.79095053299549     -0.15249529205214
