15
Coordinates from ORCA-job NEB E -26.734450618710
  C           0.48382433261850      0.77171841989970      0.15534161807117
  C           0.83898653238459      0.98081273223629      1.53604914554288
  H           0.55590538725517      1.03419923623962     -0.99854840533511
  H           0.84802331957399      1.78953771609021     -0.28824533072209
  C           1.28182397336692      2.34278487345471      1.80178380792619
  C           0.15014737558670     -0.61809756821662     -0.20105901902475
  C          -0.96146850988503     -0.83814638791671     -1.14995279084437
  C          -1.89400142673570     -1.75757868382579     -0.96382382383608
  O           0.71887981492812      0.14707359639656      2.41807223191832
  Br          1.85183550174441     -1.55053365432345     -1.17511977032542
  H           0.06801780084467     -1.21096928744000      0.71043094430444
  H          -0.97244027250670     -0.22125458255575     -2.04188831309812
  H          -1.89433722142302     -2.39067493479754     -0.09267155423414
  H          -2.69268516941976     -1.90549096736281     -1.66904845982117
  N           1.61748856166714      3.42661949212157      1.95867971947826
