15
Coordinates from ORCA-job NEB_product E -26.876424551840
  C           2.15347226076111     -1.31256360364810     -0.01074328642781
  C           1.70688503221077     -0.91676733381421      1.37857075543339
  H           3.24119903452138     -1.18751812582730     -0.05955136673473
  H           1.71996805226932     -0.61902912907432     -0.73865656685815
  C           1.93129226924265      0.50091604868069      1.62752692705635
  C           1.75815089073789     -2.74933103375144     -0.32537453625071
  C           0.28692978398938     -2.92144808900998     -0.46607726194669
  C          -0.40533587231422     -3.83527839827180      0.18852889345080
  O           1.23339321421952     -1.65551439141540      2.19933649448170
  Br          2.63092835928288     -3.26293804036630     -2.04024445432579
  H           2.16597331070401     -3.43585430556771      0.41901009792156
  H          -0.19346718186390     -2.24748545891260     -1.16382230433531
  H           0.06311609860848     -4.51450512785165      0.88114533401581
  H          -1.46991603085930     -3.93053321868462      0.06706888307738
  N           2.10871077849003      1.61825020751474      1.79678239144220
