19
Coordinates from ORCA-job NEB_reactant E -47.327111869360
  C           2.34643053326468     -0.55172740249691      0.36766007564756
  C           1.50285637386817     -1.01815859995385      1.30908384849931
  N           2.41090329827975     -0.91131203459734     -1.00761483671856
  H           3.09864569909688      0.17686298913660      0.63664117880051
  C           1.56977979374159     -0.38479857279318      2.68540285788519
  C           2.77505209471216     -3.90255966168259      0.88936289443102
  C           1.77326668737498     -3.77151594936186      0.03848705062557
  C           0.52034507037527     -2.99407011887746      0.29604985054552
  O           0.63138492769632     -2.01360358994193      1.32215045284108
  F           3.85290226953536     -4.62660639227026      0.58295911600047
  H           2.85121450111645     -3.47602770062565      1.88027899120961
  H           1.82187913190142     -4.25978740269513     -0.92301570634602
  H          -0.26980546698653     -3.65688215611145      0.66519270648313
  H           0.18433484967734     -2.52678166497791     -0.63794347538400
  O           3.50325422618980     -0.88021328684595     -1.52366890057125
  O           1.37159436318623     -1.17597652186556     -1.58240343608427
  Br          1.59335790828157      1.55635763386712      2.59408917436522
  Br          0.06328386164666     -0.92453486788886      3.76605280872606
  Br          3.21451987704189     -0.98846470001782      3.58193534904385
