27
Coordinates from ORCA-job NEB_product E -47.637069274960
  C           2.55826251615700      0.82019800938232     -0.67498936748424
  C           1.32997702523149     -0.04603876981862     -1.01285763004706
  O           2.36809078471954      1.59320624090209      0.48012139886929
  H           3.43596091387280      0.16126596274768     -0.55522240448709
  C           1.65328152266010     -1.30293260205781     -1.78886168231999
  C           2.78101684637584      1.76422538219050     -1.88113480189696
  C           1.72314887077346      2.83230204503666     -1.89540080154341
  C           0.86369872816511      2.98388034901454     -2.88324361148883
  O           0.22232917509061      0.26125374357509     -0.66749040891149
  C           4.17685150021224      2.38943087185685     -1.87271251489652
  H           2.71553273011224      1.17251990653580     -2.80096455079556
  H           1.69357672795297      3.45513053882414     -1.01550357461550
  H           0.87976468671134      2.35558562007879     -3.75923956453445
  H           0.10562573426483      3.74622955026175     -2.85655084973850
  C           2.34283883982072      0.84326072507992      1.66936850911693
  H           3.26674588731711      0.26249246305041      1.78779200294345
  H           1.48459195966921      0.16474454425886      1.70230176604944
  H           2.26204326329982      1.56588293110024      2.47814109705240
  C           0.44211067406945     -1.83369360223786     -2.54546324266690
  H           1.98291734988688     -2.04303693661008     -1.05265567666252
  H           2.49359968897764     -1.12110063882727     -2.46097977443580
  H          -0.39286770490551     -1.96555774853232     -1.86282957134220
  H           0.67188215560659     -2.78741292103417     -3.01272243869631
  H           0.14045991938736     -1.12910171874684     -3.31635221145637
  Cl          5.42664253195521      1.12160502591839     -1.97001287581557
  Cl          4.35336845881643      3.42083431526534     -3.31701640117418
  Cl          4.48924921379950      3.37312671278561     -0.44352081902206
