27
Coordinates from ORCA-job NEB_reactant E -47.635328009650
  C           1.56698020092760      0.09080093037321     -0.42926288380219
  C           1.31611106767614     -0.10594569639559     -1.72281323102967
  O           1.42478740118351      1.27831652605072      0.25738394685088
  H           1.89733287071089     -0.75049476926617      0.16844146512195
  C           1.41182120271405     -1.47960973611004     -2.33202768891255
  C           3.25439934644351      2.30268735479550     -2.20093493192490
  C           2.06795416329326      2.81094076975895     -1.90215227093505
  C           0.77379183913717      2.15339465943138     -2.27306062782181
  O           0.89531851743356      0.80779986531249     -2.65788767809698
  C           4.56550977052087      2.88213403996185     -1.82654436599474
  H           3.33643920475071      1.38022424588075     -2.75923598445841
  H           1.97218385352921      3.73413911925691     -1.35150186130923
  H           0.34546946375823      2.66082417497241     -3.14593022480511
  H           0.07524324258675      2.25430361062379     -1.43378804304537
  C           2.30380663524572      1.42132791291439      1.34738015075265
  H           3.34494336107853      1.48086479172781      1.01401472812394
  H           2.20178299076112      0.58623334253869      2.04948816058749
  H           2.02912094723718      2.34965830011342      1.84471845052663
  C           0.04234622446308     -2.15792024860297     -2.37652500756918
  H           2.10921071471232     -2.08915035418278     -1.75779580164313
  H           1.79077840370794     -1.37403733323815     -3.34944872192494
  H          -0.35079892078494     -2.28185892515004     -1.37050800199949
  H           0.11987983351454     -3.13619746296100     -2.84448139284083
  H          -0.65438696307772     -1.55172509489954     -2.94894449284859
  Cl          5.52195854011724      1.65887960510939     -0.93065212679627
  Cl          5.48434497352958      3.30568822405707     -3.30524703789199
  Cl          4.45027111482996      4.32782214792753     -0.81688452631314
