20
Coordinates from ORCA-job NEB E -49.792452980340
  C           1.07887349213637      0.22222184258730     -0.50189855597725
  C           0.62969372100736      1.54379189645380     -0.70137123678425
  C           1.00001193616113     -0.67410579112360     -1.71348174746607
  H           2.05509996220170      0.12246965129607     -0.02849651978301
  I           1.59414493717201      3.06328191558742      0.48514488553729
  C          -0.17757506500636     -0.20064954853907      0.94224785821780
  C          -1.43545808748680      0.10449561482168      0.40060491519180
  C          -1.69488865464307      1.43759394970685     -0.00924547412351
  O          -0.53561757366709      1.78915373213426     -1.12554732826628
  C           0.00966577265058     -1.54625506003301      1.58453436240426
  H           0.25906651492565      0.55433701494006      1.59914937952543
  H          -2.05918113380531     -0.68767134310122      0.01577352990158
  H          -1.47197507669471      2.22882757923366      0.70395571144593
  H          -2.61478309015953      1.60325573073551     -0.55516076133346
  Br         -0.75650663761303     -0.95860739950451     -2.47498954926319
  Br          2.08796919551411      0.20270566031527     -3.14618668842170
  Br          1.85444336124892     -2.40295653603268     -1.43796901218015
  Br         -0.92699836326312     -1.44591422375158      3.33764106033045
  Br         -0.77814308509622     -3.03887258252755      0.62600157822955
  Br          1.88215787441740     -1.91710210319865      1.99929359281478
