20
Coordinates from ORCA-job NEB_reactant E -49.833837026220
  C           1.66061193032031     -0.17212532333179      0.11637526364684
  C           0.75985783212985      0.18498171372687      1.04018557720562
  C           1.94175946354350     -1.60226268142405     -0.12542253121938
  H           2.17744121026529      0.56093372744934     -0.47914491524524
  I           0.38026574516493      2.23912966977868      1.41480818696191
  C           0.10267724554482     -2.42538670898127      4.45661646024036
  C          -0.69767110779935     -1.89930623069749      3.54389809327039
  C          -0.47400567324105     -0.53095697712454      2.97903485109650
  O           0.06451458178946     -0.74365134716666      1.67733603775873
  C           0.01569190740439     -3.79352900904799      5.01039447690582
  H           0.92309037283291     -1.85308413833482      4.87404263561216
  H          -1.50489564253222     -2.46042544224368      3.09547978003759
  H           0.23282094851737      0.03641553071052      3.59402039941462
  H          -1.41906351883557      0.02032030647381      2.89825095454174
  Br          3.40911638086914     -1.83253376410609     -1.37693599651469
  Br          2.42130708404814     -2.54051163288830      1.53880594190397
  Br          0.35493759857712     -2.54661175478344     -0.84628326383810
  Br         -0.22032643821054     -3.68019340038067      6.96306373553810
  Br         -1.42724451434216     -4.86914737787695      4.30003854141431
  Br          1.71521459395366     -4.73065515975148      4.65113577126877
