20
Coordinates from ORCA-job NEB_product E -49.834160707220
  C           1.31992711200342     -1.41272735996214      1.97315030491933
  C           0.91134688025328     -0.02196222326457      1.50931842844877
  C           1.40870108144449     -2.30729501433868      0.73801713528267
  H           2.33382927974695     -1.37261546481071      2.39349523975486
  I           1.90408318072415      1.54986040915346      2.60470121837945
  C           0.33907084793305     -1.68224788663295      3.16004924229756
  C          -1.11914813788206     -1.52505586091471      2.80953088866891
  C          -1.80854548469392     -0.43682398431597      3.09723873094297
  O           0.09978715639235      0.23593524528432      0.69390177630840
  C           0.53718438045909     -2.96433190588068      3.96840786246901
  H           0.59220140210407     -0.87324762247199      3.86526239715052
  H          -1.60246265497613     -2.36202469475990      2.32910590056652
  H          -1.37005955165345      0.41554705045976      3.59166783417710
  H          -2.84983129202750     -0.35782261145227      2.84251274252987
  Br         -0.27610429738633     -2.74758163802096     -0.10271236479591
  Br          2.50283839187636     -1.31905087101919     -0.59990425973614
  Br          2.42013969609338     -3.94577227335972      1.06339733621726
  Br         -0.47974552415658     -2.74490503165776      5.64344026911300
  Br         -0.15209120826116     -4.57870239508846      3.12670872147713
  Br          2.40957874200652     -3.22307586694687      4.48171059582871
