21
Coordinates from ORCA-job NEB E -46.511572177060
  C           0.73023520562864      0.05408883999339     -0.66462326960653
  C          -0.10515488135544      1.20574791459678     -0.57605449644106
  N           0.35070142686968     -0.81605849450444     -1.78837449646780
  H           1.80467854462672      0.22598216912937     -0.68858333072616
  C           0.41591117762620      2.49568314999401     -0.18428632560199
  C           0.37092041483259     -0.99311513215635      0.75016047984605
  C          -1.03985834929875     -1.11399580752497      0.65574005749798
  C          -1.86361636794150      0.08220600842608      0.58860776757175
  O          -1.41380362879912      1.03834108379878     -0.47087397536600
  N           1.17368188150177     -2.13144355575536      0.61308205027078
  H           0.74916636129229     -0.29854545399858      1.50186351273195
  H          -1.47657075808291     -2.06325752659835      0.39080513203932
  H          -1.80051532075835      0.68318436515099      1.50289204378899
  H          -2.90084316176020     -0.12505002446393      0.33760685447726
  O           1.20182650039365     -0.99077567328665     -2.62328587835412
  O          -0.77617367888600     -1.24291453826260     -1.81140118402123
  Br          2.11985779421460      2.98084934431274     -0.89416369559907
  Br         -0.85369660013566      3.90628809248512     -0.36234021376033
  Br          0.76367807206143      2.35798565932036      2.04619621485821
  H           0.68726951252716     -2.97374334199964      0.34667815150976
  H           1.86230585544323     -2.28145707865674      1.33035460135221
