21
Coordinates from ORCA-job NEB_reactant E -46.543597461890
  C           2.28946533005352     -0.68817959998592      0.45583728537443
  C           1.69912885216533      0.04087831821411      1.42641574497657
  N           1.70164346969020     -1.76448579162688     -0.25210924866605
  H           3.30483472951902     -0.48203679335950      0.15055106496177
  C           2.44311488089296      1.23660005967514      1.97411039644237
  C           1.79806835947754     -2.49529211354121      3.52261170085745
  C           0.94532236875644     -2.54309309924724      2.49116752541096
  C          -0.03892714030844     -1.45424298525868      2.22503915683270
  O           0.58771313712025     -0.15594035577096      2.10478547283662
  N           2.80364669984367     -3.38341205141467      3.74558795659649
  H           1.76230275844489     -1.67133349138357      4.22459990832634
  H           0.97947443140874     -3.36804363313084      1.79690199273352
  H          -0.72895732466429     -1.29195359550104      3.05802425138287
  H          -0.60834404838654     -1.66209100453382      1.31333991950219
  O           2.45220475974663     -2.62413421730503     -0.66434614998314
  O           0.50002160999366     -1.73692342973149     -0.44849971602062
  Br          3.26829170335998      2.30973857486914      0.58815370524764
  Br          1.25910897005273      2.35870458919391      3.00421029393816
  Br          3.85644181006239      0.57984965383599      3.17792261591367
  H           2.80392962473821     -4.23151987997186      3.20335017631434
  H           3.20791501803311     -3.43748915402556      4.66304594702171
