23
Coordinates from ORCA-job NEB_product E -44.634097345710
  C           2.33736763015318     -1.67621935342473     -0.43801216566915
  C           1.32546116227232     -1.33530794207828      0.62468136340374
  C           2.32191549347580     -0.57311490568778     -1.49806596391513
  H           3.33389008147119     -1.75009007005296      0.00424501562414
  C           1.85844639522392     -1.39658312042702      2.07639459152803
  C           1.94836290733475     -3.08058799964632     -0.98962108465443
  C           0.70294707989583     -3.02627210509383     -1.82457148613222
  C          -0.47423226650338     -3.45199338317520     -1.40914706518288
  O           0.19026272993398     -1.02311717216277      0.42119452723991
  C           3.10442283080399     -3.71467065589725     -1.76863845842557
  H           1.77543259735698     -3.73578566787809     -0.12860944894584
  H           0.82637518281447     -2.61206999415104     -2.81455461646841
  H          -0.61553016146026     -3.86911672075663     -0.42539837033687
  H          -1.34976555754186     -3.39298881712607     -2.03156024066926
  H           1.30481177072927     -0.39150181206577     -1.83365819690525
  H           2.93655127445726     -0.85118630174663     -2.34753066029138
  H           2.71542824477182      0.34656568449347     -1.07095452254534
  Cl          2.67945222962002     -2.93615449624798      2.39368207151966
  Cl          3.03094093973863     -0.06499009418685      2.23514221623990
  Cl          0.55279469960959     -1.17821023576254      3.24465273671264
  F           3.37254021245828     -3.05115380475928     -2.93822164069701
  H           2.84727500628336     -4.74150884837643     -2.04835451680491
  H           4.02964951710086     -3.70674218379000     -1.18309408462436
