25
Coordinates from ORCA-job NEB E -51.386979662580
  C           0.11376426463886      0.13121522763014     -0.95623974188193
  C          -0.93732035879215      0.77046983301254     -0.23688169131564
  N          -0.37210278677709     -0.77960430873523     -1.98656432088824
  H           0.87941424573032      0.78221026641970     -1.37311387081242
  C          -0.91589176329037      2.25036370769895      0.00677837377077
  C           0.80130135087501     -1.01119548974230      0.26669140591936
  C          -0.28495758078016     -1.84731034608465      0.60264847848608
  C          -1.46891085498159     -1.18654970161169      1.12366516690363
  O          -1.85092176797878      0.06404608909551      0.37137258211910
  C           2.02182984099428     -1.68795609147054     -0.31715016927910
  H           1.12650218014843     -0.28259417604104      1.00686998544641
  H          -0.37820238356176     -2.82097449863750      0.15436311028380
  H          -1.34156442233935     -0.78431390745003      2.13214312720158
  H          -2.35648045116150     -1.81246767372415      1.07726693658709
  O           0.06832456861009     -0.60627579136753     -3.10249113524512
  O          -1.21309104337965     -1.58626581389982     -1.65723649098617
  C           0.15321100700617      2.62438194820288      1.04105317958643
  H          -1.89822996315995      2.55017426127372      0.37225746782519
  H          -0.71348411427867      2.77397407825987     -0.92817374402681
  H          -0.03320147078195      2.11878064027557      1.98550720987957
  H           0.12907984091755      3.69598807139144      1.21721701964881
  H           1.14626631661535      2.35829577740199      0.68753826420483
  F           1.73881739874509     -2.56494202517699     -1.28010695431412
  F           2.88174857000925     -0.79466029275930     -0.83678248414457
  F           2.70409937697259     -2.35478978396156      0.62936829503147
