25
Coordinates from ORCA-job NEB_reactant E -51.417314143170
  C           0.97794427831317      0.41339117669170      0.07823427453563
  C           1.39159104836381      0.13442624539525      1.33630348450943
  N           1.20642324156240     -0.40203853636845     -1.04879885429609
  H           0.42855368482308      1.31313740728880     -0.14146532345997
  C           1.10404923082603      1.12337153658622      2.43271455394917
  C           4.16326350271377     -3.06369088198899      3.59305516762552
  C           3.30697623833096     -2.61781418172813      2.68961879962614
  C           2.49677436804072     -1.36992790214389      2.85236994513473
  O           2.08248134226751     -0.97958155812457      1.55984295289507
  C           4.94271615699945     -4.32986718181444      3.42442399353133
  H           4.36284145891007     -2.55985746765267      4.52747177664183
  H           3.13703864539938     -3.14083094406428      1.75806949476353
  H           3.08650300749197     -0.58665746994283      3.34304332503338
  H           1.62032285633933     -1.59488488844578      3.47966915916553
  O           0.77105344488150      0.01476585992250     -2.10888446478862
  O           1.80401797093143     -1.45261182705813     -0.92085878885591
  C           2.24262914255369      2.14355583284178      2.54454161984376
  H           0.96712237809237      0.61323932673978      3.38692203762934
  H           0.17967699355043      1.64996190602884      2.19717147290880
  H           3.19373880775902      1.65935439320487      2.75343781997847
  H           2.03120587489490      2.84697672568161      3.34535499461847
  H           2.34166029477285      2.69551320648874      1.61391588955404
  F           6.26816682068924     -4.10273200877201      3.45241122753662
  F           4.69436533005260     -5.19647159518949      4.42458738817441
  F           4.68388388144029     -4.97432717357646      2.28464805374538
