25
Coordinates from ORCA-job NEB_product E -51.425109151230
  C           2.99930507328884     -0.66252953427849      1.93746711232279
  C           1.96967586965512      0.14483502717654      2.77460816620192
  N           2.50962815817485     -0.89116322823735      0.55738465887617
  H           3.90267988636547     -0.04264588424271      1.85728477712893
  C           1.21810434319453      1.20814333538824      2.02905235257526
  C           3.33835859430929     -1.98508064293695      2.65783724329434
  C           2.26924103934579     -3.04222872587210      2.53668521938849
  C           1.36279916130168     -3.24665669030751      3.47328353253557
  O           1.85573898731153     -0.06420551279863      3.94815158886246
  C           4.66546192714031     -2.53439117749279      2.14151085176309
  H           3.47910689884583     -1.73329035862269      3.71658265564296
  H           2.28655583590752     -3.63538038688957      1.63394658268687
  H           1.33302946786076     -2.65791063789768      4.37501578139617
  H           0.60739333728439     -4.00329261631684      3.36085964912814
  O           3.12030046823122     -0.35082402784907     -0.33070440667059
  O           1.52685332588002     -1.57633342481858      0.42480563480222
  C           2.15007905338580      2.26315776520535      1.42277602681084
  H           0.53329756606992      1.68275939886533      2.73408449904742
  H           0.62454456419089      0.74158700733988      1.23939971800557
  H           2.80275373800578      2.67716031326812      2.18780210344746
  H           1.55196540313328      3.07210034060424      1.01264869839626
  H           2.75901822064267      1.85664082386519      0.61989871141936
  F           4.61960782923598     -2.85165772846780      0.84099775619002
  F           5.66452479287767     -1.64560455522405      2.28151841143306
  F           5.03617645836084     -3.63558887946007      2.80070267531521
