22
Coordinates from ORCA-job P E -41.167665994700
  C          -1.31698938031946      0.39485591215494     -2.37431011554852
  C          -0.03607809124347     -1.66236938474065     -1.13018423215636
  C          -1.36972463292882     -1.93639375957525     -1.74466254258006
  C          -1.99957400723945     -0.94289752783004     -2.35031206898551
  C          -0.83039589433081      0.77048228727927     -0.96134638886473
  C          -0.09946147527172     -0.39120564038019     -0.26139798871315
  H          -1.78905921709216     -2.92654068122386     -1.67831373545474
  H          -2.96673087718726     -1.04099213257092     -2.81465815731387
  C          -2.24249189214337      1.47448773389367     -2.90646102769669
  H           0.30318067608847     -2.49827607954382     -0.52017540880460
  H          -0.45773110658398      0.35922609944659     -3.05656072372031
  H           0.70009088258555     -1.50861644635322     -1.92610318616656
  H          -1.70240189621261      1.05837378762677     -0.37230837116915
  H          -0.63797806161617     -0.64976170315046      0.65495604193709
  H          -0.17642567277174      1.64156817911829     -1.03331210390560
  C           1.31046918066587      0.03697670142347      0.14214180946340
  F          -2.65443161727664      1.21959009030348     -4.15788394061275
  F          -3.34965087123716      1.62468719058499     -2.16499853863575
  F          -1.64669820904446      2.67959532878786     -2.94467129634951
  F           1.92481157519814     -0.95908865404652      0.85986434870819
  H           1.29048291441827      0.92027496370383      0.78883507213961
  H           1.94011767354297      0.22717373509180     -0.73387744557041
