22
Coordinates from ORCA-job R E -41.073253477210
  C          -1.14775471914133     -0.16309165051044     -2.80415716078917
  C          -0.38814178575683     -2.87767967393443     -1.74422207742620
  C          -1.62397953074630     -2.41951308754363     -1.91342134960140
  C          -1.97080129562004     -1.05148377360988     -2.24964126907379
  C          -1.09293388705681      1.38869621343666      0.45937194290014
  C          -0.11658084822256      0.51609389300238      0.30263846075117
  H          -2.46792186734588     -3.08205933919294     -1.77258074138246
  H          -2.98988550454615     -0.75699015836756     -2.03260328168625
  C          -1.57058916160992      1.22906509179701     -3.12417959109195
  H          -0.20433236403229     -3.90633454275180     -1.48555321344042
  H          -0.12807310932322     -0.38488187886485     -3.07468945100614
  H           0.47637818344734     -2.24379229979084     -1.83463908142373
  H          -2.03434467702230      1.11233164791205      0.90083927374042
  H          -0.22810193039406     -0.51797951420573      0.59941442067728
  H          -0.98831909473719      2.41679194429664      0.15557115062394
  C           1.21642881732050      0.85819362932172     -0.28134750050424
  F          -1.71626769499123      1.42989533187483     -4.45049765859595
  F          -2.73738930582436      1.58407867574969     -2.56409024136997
  F          -0.66689321881488      2.14232515249591     -2.71720194958391
  F           1.63916031221828     -0.14040749008769     -1.13511681763298
  H           1.98230817665680      0.92987462653442      0.50146186425696
  H           1.18544450554243      1.78335720243847     -0.86309572834136
