22
Coordinates from ORCA-job TS E -41.057372385000
  C          -0.71144529798177      0.38711680947159     -1.21591926923787
  C           0.63410787162571     -1.82995128824871     -0.02686662813633
  C          -0.68512886430007     -1.86904127314416     -0.33220195123061
  C          -1.35027579187822     -0.78471451311842     -0.94396723434922
  C          -0.12648403942618      0.96021761340517      0.92624439062858
  C           0.65310039239310     -0.01540568121474      1.45332307731100
  H          -1.30133572316248     -2.66588055696656      0.05883219961457
  H          -2.42998210597594     -0.81232229338744     -0.99295719795491
  C          -1.48391966952929      1.56006163830337     -1.72102355022973
  H           1.08522200000965     -2.61670390289396      0.55379778435990
  H           0.34203968534524      0.43993680004707     -1.43047219122748
  H           1.31975325777135     -1.21056520324370     -0.57410592051639
  H          -1.17093077715939      1.01791759740499      1.17386295135153
  H           0.24360380286592     -0.73954444593016      2.13939913002674
  H           0.31952444885469      1.84900629120539      0.51285737312563
  C           2.14520765572618      0.13894284043796      1.49971465594442
  F          -1.83522659231938      1.43591470713904     -3.01884190410301
  F          -2.62838410146149      1.76628037136723     -1.04845629610269
  F          -0.78261399573919      2.70423314889448     -1.63986850609682
  F           2.78308010526161     -1.06174092870401      1.69266179722101
  H           2.42971266588718      0.76985865691181      2.35330092828088
  H           2.55037507319277      0.57638361226377      0.58068636132080
