20
Coordinates from ORCA-job NEB E -37.110977353060
  C           0.39597409436365      0.77934120121449      0.56405118933376
  C          -0.72053996662645     -0.03934092956995      0.82527362872881
  C           0.15304689771103      2.09256974026535     -0.13673063916861
  H           1.11988027096922      0.85189248604156      1.37291579107957
  C          -0.66368064912748     -1.04730228910356      1.95816309164454
  C           1.24633765741904     -0.32348109781289     -0.71723088357489
  C           0.27557502884759     -0.48208166339511     -1.70929231576915
  C          -0.93070388662564     -1.14299164131913     -1.33313018692935
  O          -1.57536994185322     -0.27289027540761     -0.13262532879749
  Br          2.87885762568934      0.55165862351314     -1.21201781662585
  H           1.48853024308305     -1.16624057859474     -0.08101611918212
  H           0.25292347220077      0.21626117294956     -2.53285143387744
  H          -0.81312041480968     -2.10937599557083     -0.84889046576386
  H          -1.72094377430890     -1.14690921544890     -2.07431226375827
  H          -0.63776703392842      1.99264791792310     -0.87576138844592
  H           1.05305409339936      2.47349891717801     -0.61169027992436
  H          -0.16309295948698      2.82049466936647      0.60930728184424
  F           0.21064667500618     -2.06840137614083      1.68271872033704
  F          -0.20505184753266     -0.47838618477096      3.09522506695192
  H          -1.64455558438979     -1.50096348131717      2.15789435189744
