20
Coordinates from ORCA-job NEB_product E -37.146794998550
  C           2.80419525348461     -0.56451973641734     -0.67796776471437
  C           1.42690910989469     -1.05466983586046     -0.29185303049720
  C           2.83860777158498      0.95985850274018     -0.69628704458284
  H           3.51950142802476     -0.94354731882699      0.06206494619999
  C           1.32597812197426     -2.55969590131802      0.06868451337256
  C           3.15458862788785     -1.20978833184647     -2.03453290105578
  C           2.29339762960660     -0.74914285310523     -3.15840785475735
  C           1.52517803530296     -1.56464513473612     -3.85700782265734
  O           0.43489849326791     -0.38383267363372     -0.26991293848824
  Br          5.04383185884822     -0.79057462326060     -2.46626319060617
  H           3.13874999481831     -2.29856792025219     -1.95472312594476
  H           2.34677951277991      0.30468975255247     -3.39112898575894
  H           1.46863650922653     -2.61961792695495     -3.64411972745960
  H           0.91124324378889     -1.20442437557681     -4.66360496407733
  H           2.01894854220666      1.35451427120793     -1.29101422102533
  H           3.78325609949939      1.31441475829979     -1.10044424780432
  H           2.73173730737404      1.34051638261031      0.31649659674282
  F           1.01510841740956     -3.27017036886496     -1.04320230560145
  F           2.49911026777353     -3.05509683084847      0.52120097593953
  H           0.54654377524635     -2.74379983590837      0.82252309277611
