18
Coordinates from ORCA-job NEB_reactant E -34.903376103690
  C           1.49728631903174      0.02521417832850      0.11408624872792
  C           1.44984017091444      1.33389960690559     -0.17363275492527
  F           1.32099586855118     -0.50399694170535      1.33747074453977
  H           1.69820893618978     -0.72291122901992     -0.63604641400889
  C           1.66804364307833      1.66081824171685     -1.54638750476461
  C           2.97514753059754      2.92373201261341      3.50030903365694
  C           2.42820982967764      2.06883080446628      2.65340481287534
  C           1.09613541990966      2.28472680153052      2.00151178449924
  O           1.20729085076674      2.42082557917166      0.58851657069188
  C           4.30202532079621      2.72978363705873      4.15910065521182
  H           2.47407461999747      3.83901267111447      3.78361193489929
  H           2.95274228444354      1.16191750473174      2.38772458253459
  H           0.66034075262793      3.23320974445934      2.32464491853173
  H           0.40785233036325      1.47053291860270      2.25661143108865
  N           1.84424972173355      1.92200276485663     -2.64622572764217
  F           4.91274568715241      1.56929730574956      3.76228823568948
  H           4.19212124358726      2.67471697792483      5.24974806855694
  H           4.98508947058132      3.55078742149446      3.90666337983738
