16
Coordinates from ORCA-job NEB E -29.703443261770
  C           0.55586548350210     -0.90376033301094      0.44240002412990
  C          -0.87045611407445     -0.75470253684103      0.26315099173969
  F           0.96989307214753     -0.51828408510944      1.69767352734517
  H           0.91628619102640     -1.92168051401960      0.27806970342885
  N          -1.58462868228797     -1.68023568003128     -0.47154356263315
  C           1.22658638819128      0.12899378967694     -0.59551959916110
  C           0.72876679583557      1.43231027071211     -0.28770228416011
  C          -0.63062423532984      1.60361896212882      0.28189585001801
  O          -1.44498915644732      0.43843562475036      0.40985291557279
  I           3.47832140899979     -0.00919168608007     -0.47740355633839
  H           1.05671522010303     -0.29802425560472     -1.57946513171804
  H           1.41390966810545      2.21849804676187     -0.02160564406040
  H          -1.24354523218896      2.24404220132693     -0.36591490566271
  H          -0.57626336475110      2.09615470430306      1.26224401970250
  H          -2.55282133678853     -1.42674668084588     -0.60624983636744
  H          -1.44301610604300     -2.64942782811711     -0.22988251183556
