16
Coordinates from ORCA-job NEB_product E -29.779681252670
  C           3.02613295805606      0.05416131105691     -2.29388218007381
  C           1.49126689727616      0.02565841273999     -2.41414638382904
  F           3.42607331227647     -0.47198157773217     -1.08645534998788
  H           3.45482714796234     -0.58546052875763     -3.07571232230060
  N           0.85677121072665     -0.51232878778688     -1.36191508028222
  C           3.48530171263850      1.49694726402909     -2.44515740293381
  C           3.03477396069323      2.34733080584762     -1.31261408864469
  C           2.34529485173476      3.46188973349925     -1.47337301347197
  O           0.93883568595089      0.47026789086532     -3.39268642561622
  I           5.66566898293809      1.58109694347154     -2.58791458705741
  H           3.11573291187659      1.87102636754837     -3.39975225475194
  H           3.31255498539343      1.99318189228618     -0.32857354461406
  H           2.07010024000671      3.82194502339591     -2.45096250449031
  H           2.02462958888736      4.05329185081384     -0.63365302461836
  H          -0.14818026701603     -0.56573015673533     -1.37662650419994
  H           1.35791582059880     -0.87849644454200     -0.57067533312773
