16
Coordinates from ORCA-job NEB_reactant E -29.744583943400
  C           2.41288079504279     -0.03784180458252     -0.64015700331904
  C           1.59827390301476      0.32278266715246     -1.63587153949858
  F           3.09943696111816      0.83582423639934      0.14595776601297
  H           2.62804468536414     -1.06331926033608     -0.39804753494035
  N           0.99949454025784     -0.63476375422491     -2.44761770324065
  C           3.90615226294819      1.86454974900836     -3.00287720078269
  C           3.42293374959255      2.70599909014912     -2.11194901972975
  C           2.00294319610302      2.68593254717180     -1.62530150938334
  O           1.24557885617640      1.57308364179752     -2.05148307937862
  I           5.90152045308852      1.91631178920594     -3.65888162951460
  H           3.32912856050572      1.08410719371668     -3.46817168212752
  H           4.03377468391111      3.47577872610051     -1.66442259324404
  H           1.46812292442484      3.55034844770947     -2.03578435490480
  H           1.99581319186807      2.77214434664528     -0.53200217764548
  H           0.18918412993138     -0.27281882210029     -2.92947239847049
  H           0.83821710665248     -1.52791879381267     -2.00981833983302
