16
Coordinates from ORCA-job NEB E -29.997795893960
  C          -0.28573650157864      1.27692844027622     -0.27352324716259
  C          -1.36664303656466      0.50279084512374      0.18457672149520
  N           0.01771468167457      1.28922160030226     -1.61602981194925
  H          -0.09368626758679      2.22369112349633      0.22073349881868
  Br         -1.99734613342249      1.01479495504671      1.98117455542467
  C           1.10830283361487      0.07541556602512      0.61106008940493
  C           0.81253708272155     -1.18196672160568      0.10344178082946
  C          -0.38907327960251     -1.79729357302789      0.47227955480301
  O          -1.59685437332284     -0.66919671897317     -0.18035875009187
  F           2.21949003703458      0.69296800249861      0.14820766134762
  H           0.91775292287643      0.35080537019976      1.64235407284218
  H           1.29468156136295     -1.47044757077381     -0.82039349482786
  H          -0.71105827260682     -1.72622237148616      1.50387100974868
  H          -0.67152931563376     -2.71486403257956     -0.02009918532099
  H           0.89908437739329      1.71542886417626     -1.85923058739428
  H          -0.15763631635974      0.41794622130125     -2.09806386796759
