16
Coordinates from ORCA-job NEB_product E -30.028430262530
  C           2.95082070619740     -0.54571563935082      0.83211769366066
  C           1.49910525390691     -0.47006107134609      1.25195753394313
  N           3.09218921380616     -0.73616666099733     -0.58415867272291
  H           3.45142614623017      0.38778715348322      1.11991034553875
  Br          1.26161098622648      0.14468540202024      3.10841814333481
  C           3.64899424938549     -1.69526998621228      1.61304940495122
  C           3.17911311536823     -3.04331646295230      1.15438295570501
  C           2.14883096776124     -3.67298974697463      1.68608800341192
  O           0.54484260758401     -0.71612273756836      0.60233234067232
  F           5.00134514309316     -1.57451215103232      1.40941906220235
  H           3.48910542930782     -1.55592198695972      2.69019991843284
  H           3.75004992768360     -3.46206993035202      0.33874577759618
  H           1.58688740159685     -3.26104351512486      2.50897825623321
  H           1.82385454013552     -4.63108723590486      1.32094852031440
  H           2.75015725288221      0.06023607189066     -1.10717217748680
  H           2.60686705883475     -1.56863150261852     -0.89841710578709
