16
Coordinates from ORCA-job NEB_product E -30.244219524410
  C           2.98532757383053      0.82737553499341      1.25480508396717
  C           1.47232188956117      0.79956738368424      1.35417770847535
  I           3.61544135891525     -0.63070848112184     -0.19745735206051
  H           3.33682249567792      1.79482042005030      0.88585284451038
  O           0.94540692235669      1.86388179629264      1.98053447863583
  C           3.63114278546303      0.55467021825642      2.63949040770110
  C           3.23287926502544     -0.80463311254025      3.14767870696545
  C           2.18815495736859     -1.02164131482753      3.92244531775620
  O           0.78736755499448     -0.08620700511078      0.94693446673124
  O           5.01378089301859      0.74805189098239      2.59072440458936
  H           3.26373906948595      1.32540772501780      3.33186088756151
  H           3.86114486371096     -1.62104777588760      2.81730950864263
  H           1.54986229334219     -0.22313561814873      4.26447229260767
  H           1.92165770660458     -2.01353751041825      4.24148693325551
  H           1.59558950284005      2.53237826608818      2.23470061132103
  H           5.41766086780455      0.02735758268960      2.08678369934008
