25
Coordinates from ORCA-job NEB E -44.832971693550
  C          -0.03311771743871     -1.09918195141995     -0.12073258798036
  C          -0.50783396245712     -0.38045496204761     -1.21289762116011
  C          -0.94766957537136     -1.93365499297367      0.73250150662535
  H           0.92645706741492     -1.58215781929957     -0.26111129983871
  O           0.41772339822588     -0.18650951981228     -2.20331469323979
  C           0.40059441304930      0.60762655914822      1.09934647242306
  C          -0.83957800921469      1.23304640792641      1.05934691485248
  C          -1.34261192879174      1.71361196628293     -0.15848814578293
  O          -1.57836491134539      0.30530716051885     -1.18206938486631
  O           0.83458401490050      0.12535104992265      2.27685051285155
  H           1.17912166926575      0.91228271826968      0.39914599717372
  H          -1.52313182322634      1.01985378905107      1.86514198877405
  H          -0.66041310978706      2.23143060358050     -0.82183014824789
  H          -2.34680935928047      2.10944504268234     -0.16382093996984
  F          -0.27092603973190     -2.43248921520396      1.80093626438818
  F          -2.01782961979134     -1.28548515477487      1.23232782269339
  H          -1.33573874616106     -2.80743546358126      0.17489104570835
  C           0.07133684348566      0.68916828761331     -3.26218527908580
  H          -1.00995893216362      0.83313958391098     -3.30298908105462
  H           0.42403081709890      0.23245435640580     -4.18626213925862
  H           0.56376894702532      1.65533585017177     -3.12351541449068
  C           2.14541391895211     -0.38774071691558      2.31764632108390
  H           2.40466848561922     -0.48120428120173      3.37033786297862
  H           2.85333529146389      0.28379746860072      1.82073081040809
  H           2.19294886825936     -1.37553676685473      1.85001321501490
