25
Coordinates from ORCA-job NEB_product E -44.883144917890
  C           2.59560869334624      0.44185402991369      0.84782463991380
  C           1.89502693900295      1.03878868329062     -0.36487217629333
  C           1.59066646282412     -0.30641307348579      1.73097273317764
  H           3.31213730930580     -0.31051078358273      0.50108262761635
  O           2.76925174549349      1.62712060174024     -1.17740828104713
  C           3.39810280225405      1.54944788428929      1.58027027429500
  C           2.54706984454903      2.77138512161001      1.82209710591818
  C           2.69289439436188      3.89751457717466      1.15052158917251
  O           0.71484895884945      0.97842343235844     -0.57628652967617
  O           3.89399037335213      0.97628436385788      2.76803894979749
  H           4.23920235180753      1.83160381768368      0.92158115695257
  H           1.80066417448592      2.66964493220883      2.59527442954161
  H           3.44195805582857      4.00855884793263      0.38229509642291
  H           2.06477690946332      4.75221444445697      1.33442235293908
  F           2.18394631491801     -1.35945427233693      2.33832320414819
  F           1.06427795240261      0.44938549193392      2.71448206886544
  H           0.75098698993066     -0.69346123671764      1.12985163294529
  C           2.22407148602313      2.25028115479075     -2.33717128868018
  H           3.07135554705554      2.61933830034829     -2.90857583556977
  H           1.56675038934270      3.07145627333055     -2.04658227789052
  H           1.65029603888226      1.52795542236395     -2.92005274086001
  C           4.80743779077691      1.79607449916974      3.44999687759645
  H           5.12632395041623      1.23127485159038      4.32302979198635
  H           4.34701861366813      2.73752278684656      3.76901454518019
  H           5.67733591165933      2.02420984923201      2.82057005354805
