22
Coordinates from ORCA-job NEB_reactant E -36.998467233210
  C           1.92333039865999      0.10102140407011      0.05664958730125
  C           1.63807092901738      1.36792286639251     -0.29059312870382
  C           1.53824723505487     -0.70911792653329      1.24645611503630
  H           2.51023546624481     -0.46045481731054     -0.65167502665434
  C           2.12698182045348      1.88791994840122     -1.61787387536602
  C           1.90207438999252      4.01959295624925      3.05634743684041
  C           1.81422508570483      2.80567013992322      2.51757743720841
  C           0.63775355792726      2.35359491010737      1.71430038055796
  O           0.93859875047441      2.33370372317456      0.31375698116662
  N           3.01096092774856      4.51782652903781      3.70812108348666
  H           1.09023138858873      4.72816934780988      2.95761204118550
  H           2.63282342485242      2.10809387514886      2.61130380410050
  H          -0.17542147332734      3.08013571707704      1.79232184081694
  H           0.26993035720534      1.38576220544781      2.05419570714029
  F           2.06375161939296     -0.25946123371034      2.42670972391924
  F           0.18710468895158     -0.75447722815022      1.45758770233120
  H           1.87065417083302     -1.75236881468591      1.13760888135243
  H           2.92016437281478      2.61381071040356     -1.44739624966997
  H           1.31071601248048      2.40217872588081     -2.11918326311324
  H           2.49952453505094      1.09021200032724     -2.25045525148960
  H           3.69512405044118      3.82359605781780      3.96969805352118
  H           2.83421829143780      5.20176890312126      4.42633001903210
