26
Coordinates from ORCA-job NEB E -46.319358230120
  C           0.02318501791617      0.27798301222839      0.64825604026067
  C          -1.38517569639244     -0.29219088947212      0.62763472156081
  C           0.02815431291571      1.61720468430128      1.41198153616482
  H           0.66799158450174     -0.39975285852673      1.21396090315335
  C          -1.94551546820346     -0.81044176623295      1.80058235242012
  C           0.63523186500393      0.47950248086111     -0.75016850289721
  C          -0.36215871443090      0.94496061626731     -1.75442902071858
  C          -1.67761517298190      1.21176346929417     -1.42987719335950
  O          -2.11473753019543     -0.25741275819615     -0.40495760344829
  C           1.29491965485799     -0.81820521007297     -1.27431207829568
  H           1.44488786291463      1.21856211916371     -0.65531846175041
  H          -0.10875564385183      0.76236879357171     -2.78792535261210
  H          -2.40850535839529      1.21868747536526     -2.22715876794888
  H          -1.94707235807117      1.85635429405543     -0.60580126164255
  F           1.32656692130916      1.96818059677470      1.67013985770905
  H          -0.47591939532836      1.55487013384762      2.37996986283457
  H          -0.39493190190453      2.43351802254754      0.81872225240294
  Br         -1.10001356782266     -0.90256158403195      3.46754268317504
  Br         -3.76364060257399     -1.25907318244433      1.78873683486201
  Br         -0.84089311016616     -3.17106622906829      0.88752847220317
  C           2.50408274228479     -1.25559760274212     -0.45729472346971
  H           1.61392327153125     -0.64269700013544     -2.30311649873053
  H           0.54841546148991     -1.61270223889538     -1.28598238780986
  H           3.20211110556196     -0.43191255822956     -0.32460086177891
  H           3.01749990651401     -2.06103195673381     -0.97617953134220
  H           2.21796481351689     -1.62930986349643      0.52206672905784
