26
Coordinates from ORCA-job NEB_reactant E -46.374402254160
  C           2.32872983670960     -0.53400578564371     -0.35973511456391
  C           1.46562683213804     -1.13795799705670     -1.17663120536161
  C           2.72356050499952      0.90387251676070     -0.47245618051012
  H           2.78996400820198     -1.09963348134651      0.43646972731580
  C           1.06439414563224     -2.57300738372158     -0.92090489261456
  C           3.75376538011644     -1.32718493294224     -3.85767612002369
  C           2.43025192145175     -1.31320462295120     -3.89351654330354
  C           1.60754340586108     -0.18161432233882     -3.36221318207849
  O           0.81685421428545     -0.58853038319477     -2.22616285290306
  C           4.61093172957498     -2.43186058109915     -4.37960341786059
  H           4.28846140988674     -0.48095957053713     -3.44388804003001
  H           1.87335933928115     -2.15056895309067     -4.29371268679875
  H           0.85311755414257      0.13712925072605     -4.08539401927667
  H           2.24865211892718      0.66430379013958     -3.10282536852584
  F           3.86595451167689      1.04816650839424     -1.23335619278559
  H           2.95550590894474      1.31446206042382      0.51458652184831
  H           1.94209281479590      1.49904500983739     -0.95596317523965
  Br          0.42124335056904     -2.81841409724983      0.90728811898302
  Br         -0.32792375032840     -3.12371580821401     -2.13283332028150
  Br          2.59961655646463     -3.76204736387198     -1.17475018160510
  C           5.72280048265754     -2.79434646679197     -3.39773992522228
  H           5.06424210815600     -2.09706667277997     -5.31806338281276
  H           4.00074702718420     -3.31025728598635     -4.59620087364409
  H           6.33360736376922     -1.92256425437686     -3.17496708471961
  H           6.36129201491082     -3.56561218981387     -3.82041574045844
  H           5.30220920999067     -3.16982698327444     -2.46803486752728
