22
Coordinates from ORCA-job NEB E -37.441933833620
  C          -0.59317170152739     -0.97595842528591     -0.82246828598185
  C          -0.90005753588137      0.34220736976786     -1.14752225564494
  F          -1.44583312799066     -1.64887416508340     -0.01011567720740
  H          -0.14317202031192     -1.63494355344247     -1.55340311178820
  O          -0.26694910645913      0.80447653104325     -2.27012587187588
  C           0.90809521406080     -0.57803413195447      0.54978594290127
  C           0.15370401569528      0.18174933249168      1.44127757275508
  C          -0.31334454254277      1.43909126069047      1.01644595118356
  O          -1.41250500140793      1.14384581614301     -0.29779303228125
  O           1.44842556756224     -1.78975617652458      0.80326672722177
  H           1.54006527847500     -0.06327556329857     -0.16918614884689
  H          -0.39419580162613     -0.32061644528452      2.22316362648792
  H           0.37988607772741      2.07452647834613      0.47880675951987
  H          -0.97062043791049      1.97816109711142      1.68271768919675
  C          -0.32673248419058      2.19974321900846     -2.50946400408018
  H          -0.32497924666030      2.33069411757216     -3.59005649756308
  H           0.54697012690940      2.69824777390529     -2.08023620573636
  H          -1.23447021832216      2.62650543116027     -2.07841226065919
  C           0.92506928506296     -2.54526310676114      1.87975510670045
  H           1.44425629809300     -3.50111659343238      1.84564392650315
  H          -0.14880297522494     -2.70872980592524      1.77285277480595
  H           1.12836233646967     -2.05268046024732      2.83506727438944
