22
Coordinates from ORCA-job NEB_reactant E -37.465059699640
  C           1.70378655047301     -0.10887152475182      0.38858242762581
  C           1.88065241546682      1.20849010048326      0.48033782826715
  F           1.26682709345519     -0.84282745066266      1.43263774894694
  H           1.89775874946554     -0.68862718620627     -0.49634400891614
  O           2.39217207402479      1.86012893088267     -0.60515471718716
  C           4.13097826952394      0.15972295038280      2.84900717647941
  C           3.01663219950327      0.81007153533317      3.16851283185360
  C           2.64804290655889      2.10604742243525      2.52683857837895
  O           1.57347666878599      1.94667858924943      1.57776711744137
  O           4.56100625674176     -1.03759618238215      3.29033657695423
  H           4.85959188596577      0.58439214515755      2.16883917430842
  H           2.27387864873567      0.38960966642419      3.82630119568509
  H           3.51963910268102      2.54911331650829      2.02859829065886
  H           2.24161712982687      2.81186383712489      3.25454504612427
  C           2.12543720972629      3.25070080586993     -0.68368858786256
  H           2.44388924874409      3.55043875300956     -1.67975785155283
  H           2.68945874534552      3.81302243749383      0.06548436806624
  H           1.06014059152491      3.45426202583652     -0.55455330562969
  C           3.69166194726458     -1.77149575597059      4.12544599758027
  H           4.18514763692302     -2.72389947914034      4.30944948301851
  H           2.72962242814242     -1.94136438192661      3.63429328753252
  H           3.52788224112066     -1.25366055515093      5.07532134222675
