18
Coordinates from ORCA-job NEB E -36.880924636280
  C           1.26711321163600      0.50034064309679     -0.42295800615503
  C           0.83577733757781      1.34519719110258      0.61631116835685
  N           0.82691079426943      0.70652989700122     -1.68382553432037
  H           2.20987713033753     -0.02046234141952     -0.30957120293605
  F           1.56661844244944      1.22101783674451      1.77358338744830
  C          -0.13284321472989     -1.01195961653633      0.42518636110573
  C          -1.33265782524223     -0.31861998425318      0.31336629115922
  C          -1.61537557880980      0.71220252256763      1.19643449309280
  O          -0.26369572823713      1.90431510946449      0.68165073994434
  N           0.22392030884272     -1.96880986111051     -0.55622222711541
  H           0.35471413971918     -1.17156200450584      1.37710908418104
  H          -1.86611626391836     -0.39434327731879     -0.62465972597366
  H          -1.26418909560083      0.65380636257960      2.21562002223793
  H          -2.48969882111495      1.32263273853317      1.04357731966821
  H           0.94298942126217     -0.03514620326845     -2.36097081974373
  H          -0.04398360596496      1.21523972740791     -1.76059568829120
  O          -0.20216469799392     -1.79998310445254     -1.69011640148565
  O           0.98280404551779     -2.86039563563273     -0.23391926117333
