18
Coordinates from ORCA-job NEB_product E -36.909682383470
  C           1.55891511986188     -2.29910742094603      0.45572592789985
  C           1.31701568749624     -0.97021278382075      1.13663535203265
  N           1.23279414797265     -2.28075329441934     -0.94926072658978
  H           2.61631226522716     -2.57027521270775      0.58457696334882
  F           1.69146267006239     -1.00433404270263      2.44576384541731
  C           0.72107493876704     -3.38292941915255      1.18721726088627
  C          -0.75043695876807     -3.20488138247898      0.98592605848154
  C          -1.55514949375081     -2.74445341214610      1.92515076250795
  O           0.86157505752047      0.01509288054103      0.67808588640302
  N           1.17798514185986     -4.71603151984336      0.66899288202284
  H           0.97976312463016     -3.36753662197130      2.25269291895203
  H          -1.11822188759106     -3.47471943532541      0.00727485042321
  H          -1.19815415586258     -2.48081374416305      2.90787617747582
  H          -2.60677369010618     -2.60741919586886      1.74753444739047
  H           1.96058109843625     -1.83794378692087     -1.49523766163696
  H           0.36691269017383     -1.77816982017290     -1.11300952246067
  O           0.33652146183838     -5.49473922588887      0.31605015174294
  O           2.36642278223238     -4.90967256201227      0.67930442570271
