18
Coordinates from ORCA-job NEB_reactant E -36.894221185650
  C           1.82669921366051     -0.01545248978843      0.05322530085261
  C           1.64916681090320     -0.93812712368862      0.99475423381801
  N           1.71982522053194     -0.26653667646602     -1.30429932667475
  H           2.17936790213121      0.96164563372531      0.34044612987898
  F           1.87449232463175     -0.63264193207034      2.30448712424128
  C          -1.01826866755776     -4.85629062742662      1.63798006263846
  C           0.07305983404432     -4.17716458216035      1.30514629936963
  C           0.35124517554006     -2.77040967453581      1.69027997003258
  O           1.29509935182122     -2.23207282790166      0.77566211425833
  N          -1.19134694196593     -6.22224276860656      1.23939152130976
  H          -1.84418311894980     -4.47013296219244      2.21570769196668
  H           0.84112525524676     -4.66191303819366      0.71440372789050
  H           0.77251834552546     -2.75645773283787      2.70842951185404
  H          -0.56807534501652     -2.16731692935983      1.70104462415352
  H           1.39583800052605      0.51254962691780     -1.85623884903485
  H           1.25455722399224     -1.13652907942809     -1.52029166457316
  O          -0.31330917821283     -6.75171915059849      0.59502789807735
  O          -2.22541140685186     -6.75538766538833      1.57974362994103
