17
Coordinates from ORCA-job NEB_reactant E -41.596147585090
  C           1.86953044778125     -0.03069905388325     -0.45696208562440
  C           1.31606149844726      0.82521437860567     -1.30630674578821
  F           2.61929117500359      0.34895384574311      0.60425804472704
  H           1.77928144263422     -1.09960391616850     -0.53907465338202
  I           0.18829663615101      0.02622973959807     -2.89378924191012
  C           4.25516732673928      3.96152268622645     -1.17845451348028
  C           3.54431821056043      2.88942709544162     -0.86819442041826
  C           2.09269795158004      2.94586712649564     -0.50308468600279
  O           1.29337204551537      2.16101041992299     -1.38211676499642
  C           5.69719682303739      3.96754920286516     -1.53646269203329
  H           3.81294036994878      4.94841101708300     -1.17501366180783
  H           3.99399718841099      1.90706508913825     -0.87517267996335
  H           1.70102637944101      3.95905538632106     -0.61550773698706
  H           1.95571659544816      2.61893480334476      0.53438529805508
  Cl          5.89967805787739      4.74355905417652     -3.13535758799496
  Cl          6.59256820223278      4.93995227806526     -0.32833570968147
  Cl          6.42655964919106      2.35925084702418     -1.60391016271167
