17
Coordinates from ORCA-job NEB_product E -41.614097244330
  C           3.35500646268586      1.01847606603967     -1.16756414974596
  C           1.87664036934760      0.71450876814211     -1.19733133319903
  F           3.84942547100569      0.54333607837002      0.01361151466340
  H           3.86892551851152      0.48119304565513     -1.97631611258920
  I           1.05375020769825      0.99272805225582     -3.17934109833733
  C           3.58438782673953      2.54072724936582     -1.29048212186281
  C           3.02621755407116      3.24332445106587     -0.08102814557407
  C           2.02952617129403      4.10408820253041     -0.14628455289848
  O           1.19262145196558      0.36430890868863     -0.30894267987804
  C           5.06401262601753      2.88534729473682     -1.49325931110846
  H           3.06521672790938      2.88658824178897     -2.19123739656087
  H           3.48385213967619      2.97559794902873      0.85970819869690
  H           1.56460105548838      4.37460744709949     -1.08063328931278
  H           1.64079476776479      4.57881481490221      0.73695752024699
  Cl          5.19649452154101      4.64660844725413     -1.72825675691812
  Cl          6.07909068169223      2.42258588872524     -0.11800407610706
  Cl          5.69153644659128      2.08715909435093     -2.96049620951508
