25
Coordinates from ORCA-job NEB E -51.369589653730
  C          -0.46275628313286      0.41403250334539     -0.87409476398653
  C          -1.56253506477643      0.85127226574110     -0.10366991269617
  N          -0.76186310534431     -0.46483043409752     -1.99553804788930
  H           0.24826324157309      1.17491546240598     -1.18301819922983
  C          -1.39313106834700      2.23130759647005      0.54156981273505
  C           0.47673228211699     -0.83772116008762      0.29970893606924
  C          -0.36662595441229     -0.99369908388767      1.40910889122387
  C          -1.70638164143490     -1.35496130763116      1.17307940991144
  O          -2.37575930404281      0.04579975186257      0.44792627997716
  C           1.86388909384765     -0.27638462650557      0.48952383437839
  H           0.43338530010650     -1.65699088503459     -0.41317311231640
  H          -0.13939217585619     -0.42523656022596      2.30287363190132
  H          -2.37510508495386     -1.44427705661387      2.01811076413212
  H          -1.90195704212776     -2.05856993271066      0.37075911381962
  O          -0.20641931329694     -0.18424135349889     -3.03127259436081
  O          -1.53659084323824     -1.37569324817368     -1.83792073934063
  F          -2.49596199011853      2.65533664345093      1.14621097674147
  F          -0.41468205467158      2.21013237388139      1.47624501893828
  F          -1.02897993022331      3.15972277122500     -0.35238935772908
  C           2.72290403317665     -0.37405937735366     -0.76630272262557
  H           2.34157273619541     -0.84973780994543      1.28847134617333
  H           1.80321029421075      0.75788047253079      0.83355845500955
  H           2.83208951209939     -1.41217501987342     -1.07209367769086
  H           3.71340132885126      0.02789646873776     -0.57127055862997
  H           2.29269303379933      0.18028154598873     -1.59640278451568
