25
Coordinates from ORCA-job NEB_product E -51.402890342980
  C           2.68223147619796     -0.69267828654390      0.85604202989602
  C           2.11886798011361      0.34084230603999      1.79155019386342
  N           1.55667671696238     -1.40912784413933      0.16055868331213
  H           3.29884029652118     -0.24411149986653      0.07196376009755
  C           2.54063851516002      1.79409135747716      1.40508513421653
  C           3.49712162090424     -1.80238141287412      1.59312783386354
  C           2.65353716741577     -2.50500741983970      2.61504430031937
  C           2.20432648226439     -3.73752802625816      2.46154091527814
  O           1.39409257183581      0.14580828093345      2.71839935529077
  C           4.76085575697369     -1.21650514980444      2.23985936634191
  H           3.80059089770526     -2.51959480115431      0.82076445909393
  H           2.42704917810060     -1.94385602182623      3.50910555779042
  H           1.60791410166886     -4.21831272042747      3.21576758961167
  H           2.41382199248228     -4.31788041165223      1.57699775374557
  O           1.72910371142892     -1.60848730475664     -1.01279582593836
  O           0.61780964498536     -1.74829515354587      0.82038281216130
  F           2.00161198897534      2.70367681589903      2.20387733953456
  F           3.87393981948350      1.94346953429012      1.45367288630714
  F           2.16810091662485      2.06957596131067      0.14593839691362
  C           5.81003878614073     -0.76888295293159      1.22906494984360
  H           5.18977514604576     -2.00135793152046      2.86635197441833
  H           4.49216953302757     -0.38398209780698      2.89301720816237
  H           6.03745927223173     -1.57319965740215      0.53308399200247
  H           6.72562110164059     -0.49993726601763      1.74836465329200
  H           5.48560532510960      0.10076170241731      0.66503468058200
