16
Coordinates from ORCA-job NEB_product E -33.273649394480
  C           1.75708252530065     -0.13082769188584      1.76696528672354
  C           1.19221949794691      0.81585377587557      0.70936742414485
  N           1.53072121637156     -1.53050008229610      1.26019821988283
  H           2.84187524702494     -0.02044412615345      1.85156644913288
  H           1.97324290310361      1.29753740187002      0.09593294669272
  C           1.09277419819870      0.08887602425809      3.13418010346854
  C          -0.39742312203455      0.08461369961418      3.13624449077799
  C          -1.10866866639746      1.05571752747874      3.68035003092184
  O           0.02977528965375      1.01029894640504      0.53732734192694
  Cl          1.69152902201241     -1.22636514478300      4.23760117138603
  H           1.47470321571236      1.02335359516859      3.55523154824457
  H          -0.87054296559850     -0.77651433197811      2.69022523757597
  H          -0.64920513190497      1.91883731454702      4.13475870747498
  H          -2.18332296749696      1.02550571104321      3.68540125688669
  O           2.52111281881774     -2.10870973578801      0.90104885615552
  O           0.40782691928981     -1.94223288337595      1.21610092860409
