16
Coordinates from ORCA-job NEB_reactant E -33.283221956530
  C           2.19363821452839     -0.28608903165946      0.78637775102428
  C           1.34903179486065      0.18431675371093      1.71966390789432
  N           1.78920143801969     -1.01236548518435     -0.36063761288608
  H           3.25679839003354     -0.13379137811538      0.86206329411192
  H           1.76385015360659      0.72340346466624      2.56935497451453
  C           0.01721081638476      0.48321297656539      5.12661024503237
  C          -0.41411100122923     -0.14245199147547      4.04326476173815
  C          -0.71799815440588      0.56553330442120      2.75648305061744
  O           0.03709129552629      0.03724102115195      1.67444856088505
  Cl          0.37157676126169     -0.32753263944880      6.59480261539123
  H           0.15577109272749      1.55369465552063      5.17728591446782
  H          -0.53997236439786     -1.21488216872818      4.02823083953901
  H          -0.53747603696600      1.64294735063877      2.85442141632164
  H          -1.75891919496535      0.39693162147993      2.46717177689777
  O           2.67864442790483     -1.36927699127102     -1.11180111328954
  O           0.61006236711040     -1.23849146227238     -0.53424038225992
