19
Coordinates from ORCA-job NEB E -47.300618658750
  C          -0.01035884703035      0.32159498424863     -1.28603112634328
  C          -1.27047130636910      0.92427993395255     -1.11063234429491
  N          -0.03677598217439     -1.09851880541817     -1.60866743942237
  H           0.71740222025934      0.86116821386052     -1.88624923289351
  F          -1.33052720720326      2.23975532772683     -1.45200997925262
  C           0.58974958938977      0.31133000615532      0.58337283454228
  C          -0.45968710680750     -0.36868130384949      1.21151150543879
  C          -1.73647112197625      0.23363264974504      1.22716794250736
  O          -2.18934740089431      0.47187658694009     -0.39922301284639
  C           1.98849601103907     -0.22826958163606      0.68210113048339
  H           0.60192919289267      1.39722801307485      0.67244548725022
  H          -0.39017456169627     -1.43558990501127      1.36304299473097
  H          -1.80464745654418      1.27596861905197      1.52033054986182
  H          -2.55792605048208     -0.37386043372650      1.58044461872127
  O           0.71518757063329     -1.45042997338993     -2.48399353706965
  O          -0.80484113925178     -1.79795560416984     -0.99694962374783
  Br          2.63359563794292      0.22851777379970      2.49955770627235
  Br          2.14323355311678     -2.15507898119004      0.46715865368564
  Br          3.20163440515562      0.64303247983582     -0.58337712762352
