19
Coordinates from ORCA-job NEB_reactant E -47.337497579380
  C           2.10291304222516     -0.27880819405406      0.35201199134115
  C           1.26992417746640      0.43342048643194      1.13700704585935
  N           2.57124332954647     -1.59034692418464      0.57993651930993
  H           2.47029686792996      0.17969369465938     -0.55335298819748
  F           0.85737589662281      1.60261735199604      0.64029514173172
  C           3.67599004504336     -1.46562874923009      3.52148300924210
  C           2.83970749633592     -0.44535548075482      3.40665848783462
  C           1.35661888830997     -0.61303015468216      3.28666892118348
  O           0.78978372039334      0.29847086152199      2.34821678469259
  C           5.14426668989035     -1.37467784185617      3.67502678514380
  H           3.30439078322804     -2.48389323048204      3.52547579351679
  H           3.18996612636562      0.57922273825146      3.39388286804866
  H           0.87101540938801     -0.34609438347848      4.23090449855624
  H           1.10081478951103     -1.64512640914875      3.01935609524500
  O           3.64784621110878     -1.88300145901240      0.10795473077269
  O           1.86650008966727     -2.35573833738774      1.21833993168822
  Br          5.61620666399375     -1.98093980999062      5.50004843911285
  Br          6.02724576249541     -2.56216527360497      2.38070588067938
  Br          5.86609401047834      0.41178111500615      3.44568006423888
