19
Coordinates from ORCA-job NEB_product E -47.342068963620
  C           2.87782322769404      0.05877835574884      1.61030403577505
  C           1.42770710385676      0.50236822364685      1.66476675237807
  N           3.06100845084405     -0.75492509899051      0.36071964146330
  H           3.50951636813929      0.95400090259162      1.51061970256688
  F           1.25664148218528      1.34294014514198      2.71507843140416
  C           3.21781380056265     -0.69131425549604      2.92281432719214
  C           2.43554889521560     -1.97304918520117      3.06530532436303
  C           1.40343585845950     -2.08556581257728      3.87992463802658
  O           0.53358888529195      0.23074466621502      0.95844522245908
  C           4.71526300799342     -0.94705135448528      3.10180362612916
  H           2.92772388607115     -0.01437108641834      3.74016442575281
  H           2.75451584658828     -2.80458156081952      2.45420675723799
  H           1.06198491683941     -1.26960447222433      4.49665872188748
  H           0.85708425655040     -3.00781709099442      3.95908021760029
  O           3.78173826241666     -0.27180349324143     -0.46964758322303
  O           2.45740229894667     -1.78752878934482      0.28658704021862
  Br          4.98434776325651     -1.75384679373954      4.86668071871035
  Br          5.47297547101613     -2.15022115276695      1.76061447957448
  Br          5.72738021807225      0.73924785295532      3.06367352048357
