27
Coordinates from ORCA-job NEB E -39.693274925370
  C           0.38394306869845     -0.57370679867622      0.77905849554667
  C          -0.93535848410352     -0.63885260225495      0.33024123174494
  C           0.64527615960945     -0.17839993883988      2.20741923802991
  H           1.06934284055400     -1.32712032282047      0.40796015133240
  C          -1.24029734739145     -1.46975728161655     -0.89672095234738
  C           0.98021504983400      1.12881516630033     -0.24226586142362
  C          -0.20593749123488      1.72066904798085     -0.68904992205109
  C          -1.25059546190602      1.90771419041810      0.21899631159576
  O          -1.77198181894920      0.27068141540741      0.67648510011370
  O           1.85382123764816      0.70136111554494     -1.18902217848763
  H           1.43623717306516      1.51743255043927      0.66248848760944
  H          -0.45009872976318      1.56881944402078     -1.73204443090168
  H          -2.18949260684224      2.28953816171760     -0.15293156170582
  H          -1.00578567073368      2.24759149583061      1.21620819098273
  F           1.96389579535737      0.16939185407480      2.41315388014872
  H           0.45695969607707     -1.03303055542113      2.86983104951350
  H           0.03215962710253      0.66910327848144      2.52273653712956
  C          -2.71782125708506     -1.83205246734824     -0.98736697928242
  H          -0.62172727662445     -2.36769762562957     -0.90220680579908
  H          -0.96086194149099     -0.86124052877106     -1.76598261920022
  H          -2.99358236031830     -2.50162342535592     -0.17597041026823
  H          -2.93451916382313     -2.32195034816723     -1.93338630655899
  H          -3.32300299176354     -0.93285629080544     -0.90758709049544
  C           3.18275251543026      0.50254749633291     -0.75565448553715
  H           3.72553266692656      0.09620046974598     -1.60668031027060
  H           3.23107488691957     -0.19990422251185      0.08067038144373
  H           3.63985188480708      1.44832672192350     -0.44837914086170
