27
Coordinates from ORCA-job NEB_product E -39.743043695460
  C           2.74546306309878      0.71763289257292     -0.95633260073439
  C           1.44547787704005      0.41693525713802     -1.69648528768000
  C           2.43218147160803      1.17693543119901      0.46404923249702
  H           3.37231243320683     -0.17810711684089     -0.92961195563496
  C           1.59835331798374     -0.51687704232872     -2.86704559372213
  C           3.55731958708852      1.80661383871106     -1.70605883215107
  C           2.69289333289788      2.98902634509220     -2.04903777251103
  C           2.72756688706988      4.13634330288976     -1.39872158981694
  O           0.39661274334249      0.90371359707125     -1.35615812331941
  O           4.11382418427749      1.20297967035339     -2.86188991541670
  H           4.37387232329281      2.12716425289319     -1.03796782481454
  H           2.01763044059034      2.83226790094699     -2.87902359697236
  H           2.08092683715180      4.95689061742322     -1.65787989682945
  H           3.39987142438430      4.29778722460525     -0.57121552652668
  F           3.59159856242507      1.36982960968723      1.17533547644229
  H           1.85122641639711      0.42055688934277      0.99944152205223
  H           1.89143646224884      2.12736335996837      0.45824498020622
  C           0.33082624493284     -0.61501307330833     -3.70487878431798
  H           1.86499370277429     -1.49908173330996     -2.46683471668858
  H           2.44805524384585     -0.17264449931272     -3.46019131761938
  H          -0.50370830645587     -0.93738513586874     -3.08735658062278
  H           0.46485059728192     -1.32530959010864     -4.51646666608848
  H           0.08088582134118      0.35527316751508     -4.12635849934310
  C           5.08712587178606      1.99959585001643     -3.49120746761489
  H           5.44817180836633      1.42645438240264     -4.34277263921712
  H           5.92107930587387      2.21108457694340     -2.81135984730412
  H           4.66665234614958      2.94967002430580     -3.83861617625166
