27
Coordinates from ORCA-job NEB_reactant E -39.729037717030
  C           2.26796531069307      0.15860664692879     -0.50680651696264
  C           1.57828863570918      0.59372327926984     -1.56080726328731
  C           2.45333794789986      0.91319274156164      0.76953906634480
  H           2.75352574219415     -0.80307789470884     -0.56429602136956
  C           1.38059313916469     -0.24203987648142     -2.79654251543619
  C           3.93949492111028      2.67246449954676     -2.72584419746866
  C           2.64819637098687      2.95660666941958     -2.84818936098371
  C           1.73293478196141      2.97279689084089     -1.66522661121485
  O           0.91719968574233      1.79829630297757     -1.60108251797157
  O           4.77179820675036      2.58732315237381     -3.79325059360912
  H           4.38712977847681      2.50259491122013     -1.75156676854511
  H           2.21337982853747      3.10969144471563     -3.82336787459533
  H           1.00879252551814      3.78789195886851     -1.73790927882556
  H           2.32089534083284      3.09210374599322     -0.74980057010312
  F           3.65779211104416      1.60681708020190      0.77297502211563
  H           2.49921908557136      0.23453453240745      1.62697437587046
  H           1.66554900475000      1.65697009733253      0.91983302722169
  C          -0.09693064024424     -0.58570882142358     -2.98270158817252
  H           1.97487334713105     -1.15310705888397     -2.72725532447981
  H           1.72527666210437      0.33604572453511     -3.65759080110819
  H          -0.44673660413564     -1.20440580428633     -2.15965598122982
  H          -0.24627209123919     -1.12528499836896     -3.91460270018439
  H          -0.68746920829992      0.32615221559492     -3.00401293602386
  C           6.12938454618917      2.36663059739840     -3.48820263779104
  H           6.64717694948831      2.27474624629476     -4.44120702384691
  H           6.26294262352296      1.44618447435440     -2.91053353979691
  H           6.55146199854015      3.20555124231726     -2.92516886854643
