21
Coordinates from ORCA-job NEB E -46.521087898150
  C           0.26183156958664     -0.42030360601884      0.97359372323593
  C          -1.08706193692175     -0.81894634022411      0.65251859088770
  N           0.40952475377628      0.49795051515876      2.06770220744566
  H           0.97215796121327     -1.23661140521953      1.08378199610097
  N          -1.33495942419949     -2.12670998795927      0.44759998011752
  C           0.74588317470521      0.70816867383060     -0.54483897691291
  C          -0.41520207650063      0.90429179582098     -1.31094084378214
  C          -1.54714548100067      1.34774924523216     -0.59461181952799
  O          -1.99624518954020      0.02248823513173      0.38060839412853
  C           1.91588522253664      0.04291753746247     -1.20570156155361
  H           1.05073100490344      1.56481393530558      0.05405661104347
  H          -0.58205760578142      0.25979812571180     -2.16588592305045
  H          -2.47469349740482      1.47188872013569     -1.13551876051819
  H          -1.38287432844821      2.08868876039475      0.18085749384498
  O           1.28830789323902      0.24086007907978      2.86539648506623
  O          -0.32572335390451      1.46303535931114      2.12629883102667
  H          -2.24570471009963     -2.40167251860812      0.11856405034775
  H          -0.63911171852034     -2.83314205269240      0.60998420046852
  Br          2.50670079598951      1.10981178137275     -2.74578057318348
  Br          3.44057384935694     -0.15308826855248      0.00775651263299
  Br          1.43918309701473     -1.73198858467343     -1.86544061781815
