21
Coordinates from ORCA-job NEB_reactant E -46.560929299030
  C           2.49776873070860      0.14463699933237     -0.93571260180506
  C           1.29336963054458     -0.15010562157812     -1.52028425771894
  N           3.14208112530593      1.37208595668075     -0.88044877125056
  H           3.03565977704299     -0.64815360323251     -0.44117004784229
  N           0.71907661459926     -1.35688986272392     -1.28883352703004
  C           3.58714539009524      1.87001578452749     -3.85500121526631
  C           2.52928089856780      1.07826705509924     -3.76507876372841
  C           1.20602544528243      1.53247532911822     -3.23570078661195
  O           0.58818094539807      0.54470588209052     -2.41702915702365
  C           4.91283295559747      1.48340991209834     -4.38162114926735
  H           3.52715306630148      2.90679769589044     -3.54567859406443
  H           2.57411847535992      0.03684178602192     -4.05960990572374
  H           0.49808162614919      1.67052490829700     -4.06001122680618
  H           1.31191707320441      2.47287762947395     -2.68180507112468
  O           4.34628470750580      1.36432598988684     -0.67329945519115
  O           2.48924096443060      2.40465075235719     -1.01088852686836
  H          -0.17892487183145     -1.52571968573953     -1.70993152314548
  H           0.96563361395892     -1.87876773829528     -0.46742260778540
  Br          6.34037288782303      2.14469885202357     -3.21412661129717
  Br          5.15442461618767     -0.42858395675556     -4.60077299715892
  Br          5.14047632776804      2.31200593542707     -6.17027320328994
