19
Coordinates from ORCA-job NEB_reactant E -34.568750109470
  C           1.19110082477142     -0.26154350582632     -0.05295771886357
  C           1.14840851610730     -1.22525666928087      0.88703110243102
  O           0.61915257872068     -0.32868333698158     -1.28487036440092
  H           1.73200383057760      0.64745217985386      0.18332856225604
  C           1.80396726351472     -0.92718150610238      2.10995921985947
  C           1.46532456530979     -4.67869297435598     -1.47514163932196
  C           1.17577341537121     -3.41069176614213     -1.24234803761309
  C           0.06261074298005     -2.98599283076960     -0.32884866724415
  O           0.54634122195843     -2.45094167349609      0.89043256552477
  Cl          2.74331465155331     -5.16752822826760     -2.51173528973441
  H           0.91615976748746     -5.50320165815351     -1.04627976419313
  H           1.75906720260681     -2.61934975239965     -1.68882861056467
  H          -0.53215978951158     -3.84998341370657     -0.02323303859260
  H          -0.57791324089388     -2.25872663941013     -0.83917205302028
  C           0.93780371360016      0.73115467983993     -2.15808720140853
  H           0.38064213926361      0.54695777590906     -3.07457816072425
  H           2.00923791818704      0.75356056098338     -2.38049822962133
  H           0.63831495297923      1.69485826235318     -1.73522926555994
  N           2.34044972541663     -0.66770950404702      3.08915659079153
