22
Coordinates from ORCA-job NEB E -46.243904107750
  C          -0.06696706733883     -0.48097645730209      0.94012851016380
  C          -1.36217813573535     -0.63590970397388      0.40751150699892
  C           0.12015892892433      0.55985643589778      2.00385382894722
  H           0.40327480466961     -1.42370915826430      1.22897572643860
  N          -1.69275927484204     -1.93877238751183     -0.10969750374570
  C           0.85703730419353     -0.03735370467349     -0.72639985544364
  C           0.07485604571341      1.01595407134316     -1.20050605348307
  C          -1.33971789175392      0.82290107026565     -1.45580393193494
  O          -1.98095823263918      0.37901318304497     -0.14460775435708
  C           2.32771116106929      0.18652907590202     -0.51430780637924
  H           0.65879426429361     -1.02451877363856     -1.13685554162307
  H           0.45008509172433      2.02536971577962     -1.12167995459218
  H          -1.58312706459794      0.00977401583879     -2.14481146526154
  H          -1.87721949984287      1.73045765707474     -1.71460999544753
  Br         -0.97715435371628     -0.02444446392547      3.55821174617577
  Br          1.94524293465460      0.65805741441268      2.67299164946770
  Br         -0.45558668850370      2.34961527781237      1.55828012413534
  O          -1.07209615402775     -2.89208245490835      0.33054920291577
  O          -2.54962445459433     -1.98738186420060     -0.96848640149794
  H           2.75956931698249     -0.56453162351103      0.14128770137806
  H           2.53999303741135      1.17724447917948     -0.12200059026326
  H           2.82066592795563      0.09490819535834     -1.48202314259198
