22
Coordinates from ORCA-job NEB_reactant E -46.274036758510
  C           1.99558817489272     -0.04751226170710      0.11128777709685
  C           1.83553570424741      0.09158341332638     -1.21604946944355
  C           1.63579241916221      1.04945486851872      1.02787313583875
  H           2.37544410405638     -0.97125766555038      0.51883898653822
  N           2.18461615679764     -1.05603231152718     -2.05915976312258
  C           3.67373436254571      0.74671701513888     -4.23247380994133
  C           3.08216351238449      1.52393411206703     -3.33802812914591
  C           1.60423759732107      1.55110088187602     -3.10372726324463
  O           1.29302695414336      1.17381199314708     -1.74627093055152
  C           5.14255078260211      0.68472839648139     -4.45433621123356
  H           3.07510409506359      0.10035892722585     -4.86299987806135
  H           3.66084367441943      2.16928952928247     -2.68972042586569
  H           1.07252058705677      0.90083927572909     -3.80363960036321
  H           1.20776049324550      2.56710976040394     -3.17016794997198
  Br         -0.30775254901771      1.40472556611678      0.97563706184800
  Br          2.13590030557685      0.64021343413408      2.85703651239315
  Br          2.53040478558168      2.71743911009823      0.51328422528571
  O           3.10006778290116     -1.74845084918597     -1.68339109227160
  O           1.50583329265935     -1.23925399496658     -3.04130672489312
  H           5.67059684528495      1.37118485289956     -3.79777125196388
  H           5.37351313819949      0.93149923583819     -5.48953877448158
  H           5.49931778087585     -0.32858328934650     -4.27177642444519
