22
Coordinates from ORCA-job NEB_product E -46.267472468860
  C           2.73714181023199      0.13685575008586     -1.25013031867721
  C           1.25560640157299      0.21833714090591     -1.50991395018381
  C           3.06352320888964      0.88812152214388      0.03199215451150
  H           3.01119454881680     -0.91402746668579     -1.08801446897730
  N           0.75955982479075     -0.89869121792787     -2.45742458929935
  C           3.36871133354114      0.59467430097813     -2.61470860362963
  C           2.41989730199732      1.54230123966075     -3.30930661507746
  C           1.77492007871973      1.23823082859589     -4.42236764186238
  O           0.44897839064581      0.98051230109662     -1.10128965383196
  C           4.76445823303244      1.20435235900756     -2.54773498596685
  H           3.43189763907359     -0.31897377702440     -3.21590677779209
  H           2.30739913303288      2.52080146196279     -2.86442854605078
  H           1.88174419564486      0.27849801239399     -4.90347556541852
  H           1.11309444242718      1.93826095048412     -4.90105785560483
  Br          1.92815031648826      0.17506186510883      1.48923130585368
  Br          4.89949097414238      0.57127377464941      0.61183269716264
  Br          2.75965063032900      2.79837141743673     -0.06722691116781
  O           1.54933267324185     -1.76804465862938     -2.73812621496735
  O          -0.37846363525062     -0.79959292751843     -2.81486211269112
  H           5.49081723666718      0.49289582606315     -2.16484837397232
  H           4.79494000886168      2.11129485288309     -1.94997786669383
  H           5.05605525310320      1.47158644432917     -3.56165510566321
