20
Coordinates from ORCA-job NEB E -51.214298902310
  C           1.07424771641392      0.47328712218787      0.32911282063555
  C           0.59400678739060      0.50324576429049      1.65079878174305
  C           0.98825939070598      1.77658193532857     -0.43822488022481
  H           2.05600755018299      0.02687499380610      0.18800636895996
  I           1.53996348020198     -0.87058210850991      3.01789355257859
  C          -0.16777564319967     -0.89287159991218     -0.32839855535913
  C          -1.42798390082896     -0.39019815089919      0.01790170185049
  C          -1.71352111512321     -0.17543236529589      1.39386041731886
  O          -0.58249227027155      0.87149747731163      1.93390321468192
  C           0.06688024086518     -1.32130339242467     -1.74785079343759
  H           0.24608002190376     -1.65424285768666      0.33519046271527
  H          -2.01789177751694      0.12803051613448     -0.72181109691090
  H          -1.51463546989470     -1.00520915795728      2.07031815504554
  H          -2.64313982023017      0.33293683054119      1.61694897550874
  Cl          1.79336886418700      1.67055680888916     -2.01622729807647
  Cl         -0.63712155411085      2.42941532411676     -0.65235102367908
  Cl          1.92722506212550      2.99266001574543      0.52160850902751
  Br         -0.84253987606330     -3.07688945781155     -1.93630135408909
  Br         -0.68719870257574     -0.16645389982465     -3.10536412504540
  Br          1.94826101583818     -1.65190379802970     -2.12901383324300
