20
Coordinates from ORCA-job NEB_product E -51.257435492140
  C           1.47717852351309     -1.79632572014904     -1.53735576009186
  C           1.07289113236742     -1.44208334818428     -0.11612829912285
  C           1.53370955819475     -0.50190533548052     -2.35890228831809
  H           2.49956217874983     -2.19278967927137     -1.53810627964612
  I           2.05462252339182     -2.69975718813121      1.34253042040150
  C           0.51798100501013     -2.96938042974027     -1.90445213100437
  C          -0.93952561350308     -2.65019732571636     -1.69408447319455
  C          -1.65027609483974     -3.18661342888100     -0.71985723811275
  O           0.28069486015786     -0.64573681622126      0.23237614916870
  C           0.70980799325727     -3.63017876847434     -3.26881323889875
  H           0.79017797239982     -3.75278896805308     -1.17857622505375
  H          -1.39252481388771     -1.96825930067125     -2.39644284173148
  H          -1.22816052016803     -3.87765872012838     -0.00738936023686
  H          -2.69234229764361     -2.95245158946428     -0.59633287540575
  Cl          2.43160494144550     -0.72879096563507     -3.87705177655905
  Cl         -0.03433341352169      0.23060948161018     -2.69968836840171
  Cl          2.50096870084849      0.67597729062243     -1.38437578833060
  Br         -0.25393411829215     -5.34332562828755     -3.21600705259426
  Br         -0.02371008650669     -2.64666058735108     -4.77226398729293
  Br          2.58300756902674     -4.06048297239228     -3.61407858557446
