20
Coordinates from ORCA-job NEB E -29.108084987430
  C           1.17808247634744     -0.56639188110716      0.78683449924189
  C           0.35742986629603     -1.70536510220233      0.75058490797089
  Cl          2.84818365918528     -0.80841774988920      0.20183432199924
  H           1.23674648287230     -0.04080822339419      1.73342615554486
  H          -0.42894478116580     -1.79985412842464      1.49901165560488
  C           0.46819020061183      0.56356927305717     -0.47236843783659
  C          -0.27370917717454     -0.21574257494942     -1.39690728170051
  C           0.30122929948544     -1.51470085151060     -1.68128099437118
  O           0.08595917482018     -2.28664841475235     -0.39195014215442
  C          -0.23366705989493      1.71514656105551      0.22949501846459
  H           1.43114971426250      0.88434025640188     -0.86468913466859
  H          -1.35396372590890     -0.20259007857210     -1.31811926472637
  H           1.37322046333169     -1.50238167236628     -1.88274337314937
  H          -0.22892858570957     -2.12055507508024     -2.41099927848024
  C          -1.44466996888747      1.30863961895120      1.06228974017246
  H          -0.55108863382447      2.42619969183893     -0.53755438021410
  H           0.48472539494684      2.22867831568970      0.87221249713424
  H          -2.19624782637515      0.81860349173820      0.44982460287337
  H          -1.89783943544008      2.18962615850345      1.51084891543969
  H          -1.15585753777861      0.62865238501247      1.86024997285528
