20
Coordinates from ORCA-job NEB_product E -29.160061148790
  C           0.70723720896484      1.66960392844116     -0.58013887309124
  C           1.45990204935651      0.39432250560068     -0.88548513305911
  Cl          1.88343711269701      2.57141848118428      0.44129915518466
  H          -0.15200599653635      1.45829231493139      0.06059081225171
  H           1.66004819285905     -0.21113069229627      0.01899334116530
  C           0.30979713115821      2.44932913530184     -1.82990821073125
  C          -0.73496070616550      1.65564270695406     -2.56509187716627
  C          -0.66946161193391      1.36704855510989     -3.85011718662190
  O           1.86080493291816      0.07008315818459     -1.96352204236456
  C          -0.18880164634287      3.87269918152671     -1.52155701860136
  H           1.19420920886889      2.53466857148765     -2.46978657636009
  H          -1.58197387738882      1.33211481743086     -1.97470016359198
  H           0.16793440339112      1.66877242645298     -4.45631878013633
  H          -1.44524872515820      0.81164581950162     -4.34863766492330
  C          -1.36649097954617      3.94152630040386     -0.55621204176783
  H          -0.47568919537154      4.33004483645041     -2.47071788614629
  H           0.64070891274256      4.45112904405794     -1.11085753827924
  H          -2.21049196724311      3.36353549681780     -0.92336169306805
  H          -1.68751147684872      4.97503682737382     -0.44883308473742
  H          -1.08854297042116      3.57601658508471      0.42916246204454
