21
Coordinates from ORCA-job NEB E -45.444763208070
  C           0.50703387076256     -0.08404174717750      0.40285528885361
  C          -1.02816359770899     -0.14235666040239      0.59417843545136
  C           0.91627439003756      1.31988763833540     -0.04649128940139
  H           0.96479281593495     -0.24183212617182      1.38911337893000
  O          -1.56621301232303      0.97473983568671      1.12398862260203
  C           0.94350060076651     -1.19730864052938     -0.55713468255708
  C           0.76883114926906     -0.85683941456972     -1.99932860489783
  C          -0.14457074201041     -1.43483777984036     -2.75676140783572
  O          -1.67531425271311     -1.08338213341902      0.25431612410068
  Br          2.82832726941253     -1.68475076236577     -0.20509678195164
  H           0.37077167407155     -2.09431918904705     -0.30744022311677
  H           1.44384512129552     -0.11412963057921     -2.40121396873448
  H          -0.81747847189125     -2.17941705243321     -2.36496818656623
  H          -0.26080751667472     -1.17133352417819     -3.79294665318192
  F           2.17411975874293      1.37239155876229     -0.49541385420183
  F           0.14159629884750      1.79977491236637     -1.02486617335388
  F           0.85041755223667      2.19353172217456      0.96861322420758
  C          -1.59029543343459      1.11494576502117      2.54144117962641
  H          -2.10665303047169      2.05319738613710      2.72718747989966
  H          -0.57867042369354      1.16759241233333      2.95269439324580
  H          -2.14134402045602      0.28848742989667      2.99727369888164
