21
Coordinates from ORCA-job NEB_reactant E -45.443354042730
  C           1.35701219203105     -0.11118717117973     -0.22713984020572
  C           1.19251048486700     -1.25452968155696      0.46860872701748
  C           2.13448952207169      0.17994459319462     -1.44570953295271
  H           0.83430037127430      0.74527647731960      0.16367544015694
  O           0.40447925878774     -1.16541987834438      1.55132272519989
  C           2.63432207120118     -5.14941083026122     -1.68954607745532
  C           2.78527521454254     -4.30743107177118     -0.68344766150299
  C           2.51594462925992     -2.83995463357079     -0.80104930082521
  O           1.67097520219338     -2.48948667331949      0.28868477742904
  Br          3.00905833045861     -6.98946779777402     -1.53445170778567
  H           2.30990160243358     -4.85997723556523     -2.67671667439258
  H           3.10896866560802     -4.64643006450953      0.28977481420368
  H           2.03245262194162     -2.61404477526418     -1.75514950605140
  H           3.46333486763209     -2.29197795976908     -0.72845178083793
  F           3.46377972118897     -0.07757197189247     -1.34912403946756
  F           1.73758099758612     -0.50309770686736     -2.55134704707151
  F           2.04041734356952      1.47304819289192     -1.77073475392600
  C           0.19238029424687     -2.33334020701019      2.32919431833559
  H          -0.47613831864425     -2.02338662771945      3.12889971707454
  H           1.13023913171569     -2.70298143518964      2.74879858270429
  H          -0.27348420396564     -3.12357354184125      1.73700882035314
