21
Coordinates from ORCA-job NEB_product E -45.473554352960
  C           2.03749398098664     -1.96375751972638      0.03520299841929
  C           0.63674740399964     -2.34580184241521      0.54635388655662
  C           1.89194161848502     -0.74202521530477     -0.86845674852701
  H           2.66651761127755     -1.67525799184874      0.88321264904362
  O           0.49352985287416     -1.99654768132114      1.81149037927435
  C           2.63244116829647     -3.13570920703316     -0.74500633656402
  C           3.95912754896756     -2.83745884803887     -1.34880971972717
  C           4.21656713315208     -3.00012504918877     -2.63345616100147
  O          -0.18873968091379     -2.88364301406239     -0.13457415900974
  Br          2.82356739991675     -4.63315879807145      0.53285646369404
  H           1.91314123568608     -3.48531544440050     -1.49009671602214
  H           4.71732365808607     -2.48734488168237     -0.66153296662145
  H           3.46759318600589     -3.35305513512231     -3.32321369767788
  H           5.18462689309743     -2.77603837197705     -3.04464622667810
  F           3.07213965739014     -0.15304597840278     -1.11226177528547
  F           1.35720675450971     -1.03243748672361     -2.05638052424543
  F           1.11491806039529      0.19477453297112     -0.30801199917106
  C          -0.76477960007288     -2.29671995618881      2.41115909563232
  H          -0.70992027913568     -1.91892336466154      3.42808241113410
  H          -0.93101479004740     -3.37516073617812      2.40791658783123
  H          -1.56942881295676     -1.80894801062315      1.85897255894537
