23
Coordinates from ORCA-job NEB E -48.754130616760
  C           0.61168082696652      0.15665071922178      0.69415792060058
  C           1.44330403743820     -0.28176769297984     -0.32928930575274
  C           0.02634453069377      2.00040957534941     -2.14046874659656
  H           1.03956075959890      0.72982122217103      1.50370022500517
  C           2.90577251229133      0.10847466466628     -0.23356328376350
  C          -0.84195427972478     -0.13443338691466      0.78419944910343
  C          -1.27896633689056     -1.33508626731669     -0.00994796513588
  C          -2.26821673145821     -1.31716948694300     -0.88235873058765
  O           1.02957066067796     -0.93897328852317     -1.31859652445553
  C          -1.25244941205446     -0.31434081371439      2.25419539637891
  H          -1.40902784124505      0.75225100657205      0.43287153291608
  H          -0.73626210591492     -2.24438411174271      0.20196055155020
  H          -2.81440449997502     -0.41639689603875     -1.11252689525455
  H          -2.55977971711776     -2.20263267248809     -1.41889977808834
  Cl          0.29495254633124      0.56025740020329     -2.91491634579086
  Cl         -1.45182468044633      2.28752234565066     -1.35783624247131
  Cl          1.33647409060029      3.01429826330488     -1.71425948637920
  H           3.44345058329838     -0.27963414218549     -1.09473982966003
  H           3.34107067654759     -0.30480457095884      0.67333959913141
  H           3.01159915909790      1.19138375424329     -0.20111662662715
  F          -0.51527495159003     -1.27117114154121      2.86204429125218
  F          -1.04198729092158      0.82633754545488      2.95750735666531
  H          -2.31363253620336     -0.58661202549073      2.36454343796003
