23
Coordinates from ORCA-job NEB_product E -48.871780106080
  C           1.14541212786567     -1.63863069696576      1.17870607155901
  C           2.47076987906276     -1.42605064588248      1.95957343364493
  C           0.96649101537059     -0.45574077036092      0.23135142726490
  H           1.20628453842642     -2.54466260013598      0.56932413567620
  C           3.54043302171994     -2.42268442452897      1.64526744264445
  C          -0.00813149213683     -1.76853970101262      2.19913332984500
  C          -1.37352327553742     -1.77613912931621      1.57073583662586
  C          -2.30717168492630     -0.88614789822954      1.84604742669522
  O           2.57640586968755     -0.53163237592663      2.74967702072688
  C           0.15156320283717     -3.07653966701127      2.98125715266232
  H           0.07498149402033     -0.94850683939654      2.91986697066929
  H          -1.56192749226488     -2.59436149581836      0.88981639180927
  H          -2.13081211330976     -0.06737107118960      2.52355155437220
  H          -3.28059577377581     -0.93161261904640      1.39046557978072
  Cl          2.50026563569719     -0.16880746172730     -0.64418523608244
  Cl         -0.27501536676357     -0.78682669082477     -1.00290699491964
  Cl          0.53622787370476      1.03251442449366      1.08019493301474
  H           4.45111030047203     -2.17029972617445      2.18089826659740
  H           3.73049980279123     -2.44815764211584      0.57487163630793
  H           3.20508041683737     -3.41153317107813      1.95338614044301
  F           0.24763986258670     -4.13996632912136      2.14413098072691
  F           1.28345528241978     -3.09541787485509      3.72307332485485
  H          -0.69634312478494     -3.25778559377546      3.65876317508097
