23
Coordinates from ORCA-job NEB_reactant E -48.860579906590
  C           1.32583116113831     -0.48963264194254     -0.02505467111800
  C           1.94845338012340     -1.36940357615568      0.77573032805398
  C           1.99186338483588      0.33455976969103     -1.05426258217754
  H           0.26509135295233     -0.32000297489844      0.05332247700678
  C           3.41204315846130     -1.67493938215935      0.74817551576034
  C          -1.30362005195486     -2.70569442589443      3.93959929643088
  C          -0.47469285918797     -2.97956956193761      2.94732952853219
  C          -0.07325469500807     -1.99850252374662      1.89321077475909
  O           1.32751180061495     -2.10959870129921      1.71305387995655
  C          -1.72113184248828     -3.70706532203504      4.97358287616346
  H          -1.76820241156002     -1.73803725980998      4.06068774915329
  H          -0.02768944691937     -3.95902102478365      2.85294202518091
  H          -0.34386581978732     -0.97588506596332      2.18395497096268
  H          -0.58843182526474     -2.24912966876277      0.95358518709885
  Cl          2.91580293113440     -0.63960578303263     -2.23587715115331
  Cl          0.78587974259797      1.26726110268897     -1.96634347835210
  Cl          3.14054140046065      1.52162542248539     -0.33429179286629
  H           3.67673234581682     -2.19944686674766      1.66204961218312
  H           3.99881954159904     -0.76591035233497      0.66188807393868
  H           3.64335597652541     -2.31493111557196     -0.10077154181484
  F          -3.07639392058055     -3.81113252553411      5.01454242911191
  F          -1.25307901448036     -4.94758026562527      4.70920050766432
  H          -1.38786428902893     -3.43235725663015      5.98984598552502
