26
Coordinates from ORCA-job NEB E -42.765943111490
  C          -0.02997701536284     -0.91997833666554     -0.70231803682288
  C          -1.28368803703642     -0.24572460364036     -0.76137375800896
  N           0.02776571836651     -2.31256506632546     -0.44242473682428
  H           0.71845979316952     -0.63315609117463     -1.43265240677346
  C          -1.39782557077437      0.88874922906745     -1.75624617241688
  C           0.73991110891959     -0.26981977809998      1.09359403491362
  C          -0.36464136108001      0.30755928736512      1.74620066229992
  C          -1.53098689488874     -0.42199985712604      1.86923326950014
  O          -2.17030744952992     -0.41381878441743      0.10197245971744
  O           1.75349906760121      0.54374652067263      0.74181920328295
  H           1.02482370037024     -1.27904204835374      1.38507889956536
  H          -0.40296574879282      1.38759232242541      1.75862998733921
  H          -2.40086557911868      0.03649036209236      2.31053387669566
  H          -1.48439387435208     -1.49968001313572      1.93537186718175
  O           0.95716068214180     -2.91307555882907     -0.96226828795418
  O          -0.81076896263045     -2.83670355205911      0.26351757407758
  C          -0.84859978410362      2.17956403195757     -1.14431432036501
  H          -2.45042069721111      1.02437116703165     -2.00651132766615
  H          -0.84638440746941      0.64218057613912     -2.66373720556172
  H          -1.42860941030010      2.45254760259288     -0.26659899944323
  H          -0.91463453183987      2.98807684197409     -1.86752502230863
  H           0.19108659560665      2.05554953629955     -0.85064832932693
  C           2.99384204537241     -0.08155866203219      0.46760405830093
  H           2.88922428896518     -0.85953957294076     -0.29331798608578
  H           3.41571077900447     -0.52182639835187      1.37495592470367
  H           3.65358554497288      0.70206084553408      0.10142477197990
