26
Coordinates from ORCA-job NEB_reactant E -42.810073032370
  C           2.42192296849688      0.77636900225334      0.35615708152126
  C           1.39796386004606      1.53580307942198      0.81632907731534
  N           3.17123685224732     -0.19176714650986      1.03520347248114
  H           2.74114812197619      0.90617919690827     -0.66660214898592
  C           0.64296635704884      2.39294696110419     -0.16917269602878
  C           4.23994319944477      1.38392138185011      3.29844449121149
  C           3.11754374312461      2.07054101559900      3.10811489261254
  C           1.75606795677495      1.46162485583575      3.20797680712490
  O           0.96374064317440      1.74294684875868      2.04905526267110
  O           5.45925217060928      1.95181287824779      3.20962084001436
  H           4.21520439837249      0.32878085638813      3.55521516146048
  H           3.16219801453073      3.11751704025296      2.84793146720643
  H           1.17424443876473      1.91357612916289      4.01758865219604
  H           1.82964463292652      0.38007526337146      3.36902719170022
  O           4.31104701277656     -0.39515767207183      0.64629824494483
  O           2.64593945438868     -0.82801909790932      1.93955203622580
  C           1.26501712254388      3.78938360375379     -0.23667513848474
  H          -0.38760415921940      2.47590092882417      0.17731001817997
  H           0.65221343998404      1.93098374377809     -1.15511122084751
  H           1.24079917600647      4.26041549271861      0.74248190575409
  H           0.70947749737828      4.41089267561458     -0.93359974346001
  H           2.29840897089045      3.73050781167242     -0.56929027749626
  C           6.54367927849740      1.04511957865254      3.18845577040698
  H           7.44561820796097      1.64914805154608      3.11570254074579
  H           6.47588275470840      0.37926393523101      2.32313703256751
  H           6.57574388654653      0.44683358554516      4.10454927896295
