26
Coordinates from ORCA-job NEB_product E -42.800693773750
  C           2.69407872515008      0.76392718751669      0.93306988613483
  C           1.43070277278024      1.65520947027463      0.87079941239113
  N           2.21240122054540     -0.63671010866965      0.85662126075689
  H           3.31431290076390      0.94172388462264      0.05026266747348
  C           1.45095758090853      2.67914469056326     -0.22850193736234
  C           3.55717000925093      1.01059411186985      2.19167513718968
  C           2.77241833904658      1.56274881498344      3.35187825893255
  C           2.32644052942103      0.81933631028207      4.34532809877585
  O           0.53675091769606      1.51774997861933      1.65639747989427
  O           4.58831485205231      1.88872188321542      1.77076836540264
  H           3.99648290799957      0.04248640364086      2.48893711734795
  H           2.59779456245235      2.62935147427945      3.31456277250206
  H           1.75510323625609      1.24143827995168      5.15301795320910
  H           2.48866710366221     -0.24522570368385      4.36795296521524
  O           1.81742836530805     -0.98661998667500     -0.22977295242701
  O           2.22924694183810     -1.31254643802693      1.85042693494818
  C           2.45988748995439      3.78431734970706      0.09695916873684
  H           0.45078080102705      3.10394542061755     -0.32401681405748
  H           1.72250958155768      2.19047633787285     -1.16587353465608
  H           2.13565972923147      4.33793357409530      0.97459497554572
  H           2.52920613633820      4.47482756954235     -0.73903731872211
  H           3.44526777731778      3.37038982398349      0.29522401226298
  C           5.62456681966400      2.02478768220388      2.71390633540237
  H           6.34828739040785      2.70683199797009      2.27305732059386
  H           6.10237961229972      1.05837012481476      2.91203147554085
  H           5.25658369707043      2.43708986642880      3.65863095896853
