23
Coordinates from ORCA-job NEB E -57.268723191340
  C           0.69672408596551      0.71848953013982      0.06885313547533
  C          -0.26193882137648      1.00709095721370      1.06453038579133
  C           0.63677822141526      1.56830795333757     -1.18274842659277
  H           1.72732896769713      0.63845227924718      0.40505440485888
  C           0.06231013056128      0.75957317326482      2.51871994792423
  C           0.15451539212674     -1.04862694815479     -0.38474615029643
  C          -1.19935708958739     -0.89538587166672     -0.72704916312650
  C          -2.08427306300138     -0.38117011785197      0.26568405900108
  O          -1.51925237771509      1.04830930492622      0.73694140839250
  C           1.07892568088391     -1.69850695287191     -1.38828431587656
  H           0.36857369754594     -1.46281153616429      0.59900764209265
  H          -1.46753972732521     -0.78467618239803     -1.76517721817543
  H          -2.08906176923071     -0.90527471129796      1.22031197446793
  H          -3.08372701111833     -0.14129135983213     -0.07646937453885
  F           1.66371381668193      1.32893759748536     -2.00667008225723
  F          -0.47730732516334      1.46393681928032     -1.90643605212574
  F           0.74258948650112      2.86780441069939     -0.84387509368836
  F           1.39112050323595      0.51104365457285      2.71018458546687
  H          -0.49186578382152     -0.11594216276849      2.88966686410013
  H          -0.20536724988901      1.63211288230180      3.12501385632190
  Cl          0.79418340815621     -3.46648505317109     -1.25164238064629
  Cl          0.77252271981036     -1.23553230443119     -3.06702116765971
  Cl          2.79040410764713     -1.40835536186046     -1.00384883890898
