23
Coordinates from ORCA-job NEB_reactant E -57.306653865330
  C           1.74476765148578     -0.31533543666687     -0.16009391653467
  C           1.53696696275767     -1.21527026848660      0.80675883571567
  C           1.37384884381729     -0.32539651341848     -1.59986636328075
  H           2.23308018056017      0.60389033677404      0.12468864920151
  C           1.98075464702309     -0.89873683134013      2.22147140038534
  C           2.01378629757462     -4.21214796334250     -2.16909562758858
  C           1.91541987101140     -3.80056838645988     -0.91553910939022
  C           0.67765959870678     -3.18624593018459     -0.33499362301043
  O           0.96089622016696     -2.42728415562789      0.83175264408907
  C           3.20803110107351     -4.85601412333144     -2.77164116437742
  H           1.19319420472316     -4.09691833964378     -2.86298731065894
  H           2.73820647235968     -3.91258887213791     -0.22386654820271
  H           0.02442037805698     -3.98480310314619      0.03649401913074
  H           0.11888111044094     -2.61551163391335     -1.07838709282499
  F           2.00287520389067     -1.26620691724027     -2.33678193197254
  F           0.05371226264724     -0.52042755344698     -1.82572805404788
  F           1.67200809483723      0.84676722946530     -2.17025683677288
  F           2.39303198076007      0.39073131975597      2.36405406881110
  H           2.82012780580329     -1.54484430673446      2.50322888848026
  H           1.14621462227919     -1.06193738438424      2.91145900835561
  Cl          2.76811541074378     -6.50656745200189     -3.31195094339661
  Cl          3.72567261266394     -3.91984746796476     -4.20102521673664
  Cl          4.57992846661659     -4.98863624652309     -1.66709377537403
