21
Coordinates from ORCA-job NEB E -28.786114608680
  C          -0.68909104755437      0.67530894671540     -0.58768338588861
  C          -1.46267499169749     -0.17644803660695      0.20370846447053
  C          -0.29790543852008      0.25454395295329     -1.97661418706172
  H          -0.88855306830937      1.73785602819976     -0.48858047123010
  N          -2.25488643558025      0.34033044940982      1.21748824247980
  C           1.05607191302654      0.44586545811745      0.44717522101601
  C           1.21519359286800     -0.94409275241206      0.40444031463549
  C           0.24154910150889     -1.76131471801398      1.00740756965506
  O          -1.24870001204804     -1.44847798299920      0.21078665914291
  N           1.92976421362702      1.29461408722587     -0.23784035023624
  H           0.66011724170111      0.88263216656822      1.35912378602925
  H           1.78380233239436     -1.35124832252199     -0.42046027387449
  H          -0.07728963953117     -1.49241671349763      2.01013614587393
  H           0.32602471556089     -2.82878729351766      0.86249414073205
  H          -0.17138505974296     -0.82347306463182     -2.01867692991625
  H           0.62449266302682      0.74584933892158     -2.27706874524294
  H          -1.08089539675834      0.53784833993307     -2.68082084308764
  H          -2.15059914282199      1.31321093085205      1.45141114656140
  H          -2.44980936647301     -0.28213310167691      1.98577152717964
  H           2.64119809724165      0.81066202251765     -0.76410973536816
  H           2.29357572808180      2.06967026446404      0.29191170413009
