21
Coordinates from ORCA-job NEB_reactant E -28.812829965190
  C           1.37386163659512      0.28471373040739     -0.16727565345370
  C           1.97245295282590      0.14393446944952      1.01750320880758
  C           2.07915146783126      0.70776129340699     -1.41555463426033
  H           0.31445662356894      0.09103063480210     -0.24081132018517
  N           1.32418253687582     -0.37142391918530      2.15077162697833
  C           6.44699376594339      0.37684511188704      2.36065463820012
  C           5.46210713348532     -0.26958231874904      1.74280055112917
  C           4.03463016483476     -0.20978659248317      2.17711183839430
  O           3.28804866580663      0.47124622117360      1.17013360141107
  N           7.78708039140101      0.27311222314814      2.04080233732386
  H           6.24909437120312      0.97075455010992      3.24331403390996
  H           5.66003317371664     -0.85334740468631      0.85587274063659
  H           3.95547543630885      0.33281969254532      3.13028471893850
  H           3.62683889694297     -1.21944459943655      2.31078925564847
  H           3.14560408034532      0.78617008385199     -1.22678686986970
  H           1.71403853412054      1.67699240131684     -1.75819901614863
  H           1.90770172065742     -0.01354947736021     -2.21525686940939
  H           1.54181388894484      0.12764179849690      3.00352360593187
  H           0.32706605209355     -0.45069779449078      2.01490962840591
  H           7.97193941726908     -0.10992091660932      1.12542216208095
  H           8.35372908922952      1.07683081240491      2.26019041553022
