23
Coordinates from ORCA-job NEB E -45.142913328190
  C           0.28055472451349     -0.61056561446382     -0.76856997171987
  C          -1.05490323821722     -0.25512490510860     -1.00917476884704
  C           0.52082885918282     -1.97201535042395     -0.15778723867938
  H           0.98606225868775     -0.38003794901540     -1.56227101058549
  C          -1.37205110724665      0.75174986490090     -2.09753699915012
  C           0.69180887678930      0.65001733894456      0.63368747235255
  C          -0.30661440436129      0.37226252719006      1.56708979776247
  C          -1.67113225011183      0.57406262420965      1.18408056537233
  O          -1.93710086916184     -0.40487868829397     -0.05185857779215
  C           2.13981043917321      0.46267284933243      1.02450068171826
  H           0.56710946322811      1.54640438189311      0.03327872286050
  H          -0.09554444018595     -0.32447858491564      2.36632662332804
  H          -1.89889098956307      1.54785976481213      0.75640039619993
  H          -2.42062397027166      0.25650727242086      1.89987956350677
  F           1.83782637249713     -2.16409573556220      0.16851753835556
  H           0.27574012258915     -2.74137083005762     -0.90030901676408
  H          -0.07197535063383     -2.13094937735518      0.74615955042898
  F          -0.82722587797131      1.97961152554349     -1.83854639252643
  F          -0.83612624817031      0.36326625861451     -3.27852474625658
  H          -2.45459021017472      0.88925627108728     -2.22955492301027
  F           2.59958457644018      1.64955400646571      1.54936430831201
  H           2.77761222303463      0.23746739898498      0.16532754239574
  H           2.26984103993390     -0.29717504920327      1.79952088273827
