23
Coordinates from ORCA-job NEB_reactant E -45.168190527950
  C           1.98183569103800      0.29765724210449      0.06168996954981
  C           1.47126720393382      1.52877147085458      0.07966390008855
  C           2.30235174456821     -0.64508523792718      1.18022429379428
  H           2.22091668510090     -0.12066914333441     -0.90466349377709
  C           1.28250647835325      2.26316632914958     -1.23709961060721
  C           3.66544874010830      2.67550978517973      2.13199287286142
  C           2.71039687078324      2.11632492486338      2.85617975934294
  C           1.27427158885326      2.00468785495474      2.43482133936164
  O           1.04311222805730      2.32977446168978      1.08157356989733
  C           5.09230830536853      2.78074332577626      2.55962055517109
  H           3.46723328864668      3.10122165606024      1.15881154848638
  H           2.92520755352551      1.71559437535940      3.83705018193379
  H           0.67701113416922      2.73762731622386      2.98974327283344
  H           0.88454902880289      1.00617395151285      2.66750458091770
  F           3.12193088958273     -1.63748474007376      0.69978948504566
  H           1.40706825809719     -1.15494264317234      1.55997660035935
  H           2.84584814177436     -0.16961522429234      2.00399009584102
  F           0.02545093945011      2.73966346721424     -1.36126037257833
  F           2.10593858950174      3.34148051993391     -1.28909893091138
  H           1.49791258491694      1.63562338275249     -2.11396593901586
  F           5.30534693281706      2.20989508123884      3.78880323761531
  H           5.39902159716728      3.83093775319117      2.63769892397440
  H           5.75126552538346      2.26404409074048      1.85065415981575
