23
Coordinates from ORCA-job NEB_product E -45.177988524120
  C           2.87848438184826      0.89022525953197      0.45967902773999
  C           1.47574885398092      1.01773209552043     -0.07327920387297
  C           3.15481962963249     -0.56299933985078      0.85047385929408
  H           3.58006170679822      1.16243607073334     -0.33841819739023
  C           1.16439921091575      2.33646272494189     -0.82639739940415
  C           3.06331495271704      1.91015442939365      1.61704525535926
  C           2.04698397534765      1.72545371856458      2.70906220640037
  C           1.22078518960334      2.67311917624016      3.10762682882460
  O           0.61390774355931      0.19355925755933      0.05028592659158
  C           4.48369677614903      1.80489752276426      2.18780760245376
  H           2.95977572432724      2.92074420535172      1.20873776193573
  H           2.04524401627179      0.76064730935751      3.19737845991094
  H           1.20660432557806      3.64796821593736      2.65065976865171
  H           0.52206691461494      2.51034481242578      3.90951097169193
  F           4.50667135400665     -0.78732589858637      0.89870710847368
  H           2.74610874202772     -1.24400295245489      0.09710345733374
  H           2.74662208378050     -0.81969971539013      1.83011649494219
  F           0.68525968731577      3.26311671708026      0.03291287794691
  F           2.27550621212844      2.86762263429004     -1.38453142227626
  H           0.41305888234992      2.17691907669774     -1.61449765502454
  F           4.73034743285777      2.89460153267663      2.98097944228295
  H           5.23714805913111      1.81203895099153      1.39375065117579
  H           4.61278414505807      0.92018419622402      2.81748617695893
