20
Coordinates from ORCA-job NEB E -47.037976076980
  C           0.39843932616515      0.44694489015855      0.42494327037244
  C           0.16650680303130      0.89694837345159      1.75599114672574
  N           0.96865125614403     -0.99709618681346     -3.35953015683661
  H           0.95069994332856      0.96091530816389     -0.36144664575772
  C           0.30225110691313      2.42746037535057      1.92191282744663
  C           0.35914603077280     -0.95651712131200     -0.03203833649812
  C          -1.00033460584365     -0.53299013966995     -0.50970722860853
  C          -2.08587335487700     -1.15235562383894     -0.00918834012977
  O          -0.03775754391693      0.17730604703130      2.71775011269937
  O           1.54574551694568     -1.29301457616682     -0.75739989111927
  H           0.26572867835540     -1.74645100503959      0.71678444672287
  H          -1.18251156044695      0.27530017253369     -1.20368457684132
  H          -1.95154322778175     -2.06345269250272      0.53900240225552
  H          -3.07437341315729     -0.75714965092011      0.03320928005133
  O          -0.09529329354244     -1.05726643833670     -2.84742163119230
  O           1.43764865439665     -1.46823996158928     -4.34937934007028
  Br          2.04013597495638      2.93687244044967      1.24157344251619
  Br         -1.10393381255007      3.22944985085179      0.89955494086337
  Br          0.32197616943103      2.88989643525026      3.81750791314077
  H           1.77469135167596     -2.21656049705172     -0.63843363574032
