20
Coordinates from ORCA-job NEB_product E -47.168330878270
  C           1.83446023278259     -1.29242458618626      0.60918360681322
  C           2.95394583401336     -0.61896167938645      1.37119260956864
  N           2.37368603308356     -1.71616256947078     -0.71410547296150
  H           1.01243201603560     -0.59555959335426      0.41692337033268
  C           2.58006706550662      0.06540077992484      2.68244389693971
  C           1.29604826055668     -2.56691568838612      1.36956336134746
  C           0.35634671262886     -3.30282428269053      0.44675578932684
  C          -0.93266631192765     -3.03423231212305      0.36556930405891
  O           4.09818765782292     -0.63274450262818      1.02780259236503
  O           2.33548422383375     -3.34432402115994      1.85393228749690
  H           0.73952889797078     -2.21885814170213      2.24756526911167
  H           0.81097430095206     -4.08079481732605     -0.15100210438779
  H          -1.39438675985509     -2.26651713726031      0.96495865889230
  H          -1.57825837769985     -3.57519279043744     -0.30297874255052
  O           2.03976131261401     -1.06162630145890     -1.66331667739742
  O           3.08763934297213     -2.68640193587070     -0.72686175818792
  Br          3.75776993774918      1.58595369772354      2.94550082889946
  Br          0.74575393835973      0.66181601953600      2.81454425013556
  Br          2.92350040825513     -1.26766507819049      4.07767609182796
  H           2.84412527434562     -3.70836505955278      1.11055283836880
