20
Coordinates from ORCA-job NEB_reactant E -47.178304114380
  C           1.95017220340463     -0.59930009958852      0.20758222143111
  C           1.39094096804646     -0.65393275580401      1.43303349952524
  N           1.46318753640059     -1.23134902994189     -0.96606947402418
  H           2.86911459354301     -0.05445606813359      0.04730726690884
  C           2.00285851688144      0.18255470561976      2.53473114171695
  C           2.05097155560310     -3.83369446150753      1.51186170159771
  C           0.99847580044690     -3.49263507954820      0.77302225746970
  C          -0.08065660667253     -2.57306039048294      1.25787381219109
  O           0.42239247435765     -1.40609389280069      1.92136889434157
  O           3.05795368607082     -4.62923607592892      1.13157051983016
  H           2.19303397638628     -3.47883703435162      2.52452178229424
  H           0.88769908256169     -3.87675152806203     -0.23112779871000
  H          -0.70012459694005     -3.03714856838814      2.03146340031141
  H          -0.71690756043075     -2.26959212091841      0.41866716409726
  O           2.29029768413123     -1.64478364771979     -1.74993145028492
  O           0.25866829794691     -1.27964770841505     -1.13297715080786
  Br          3.67118209909961     -0.68473829914940      3.12030983535510
  Br          2.41545578479485      1.98536089604121      1.95068660255594
  Br          0.81328751232898      0.28726370765657      4.05119149557670
  H           2.93479699203917     -4.93112254857681      0.22091427862394
