18
Coordinates from ORCA-job NEB_reactant E -34.457686935050
  C           1.39766724614200      0.33204111723696     -0.20054578183189
  C           1.54089752084386      0.62455035901335     -1.49129644531868
  O           1.75192890770211      1.14691654867330      0.85504323621785
  H           0.96769685727912     -0.62485322303799      0.05385103812708
  C           1.11817098705985     -0.34829627602485     -2.56531335252252
  C           2.71036514148936      5.13124069182589     -2.06153343106848
  C           3.05969188047556      3.86375171392417     -2.15499181934612
  C           2.51898998801721      2.79500035401656     -1.26280019461264
  O           2.04783231576819      1.74485931954520     -2.09329500779374
  F           3.23341968846494      6.06987436673653     -2.86513490018348
  H           2.01479972283567      5.55201154848112     -1.34971365899696
  H           3.75985378296824      3.54475713381345     -2.91212333703585
  H           1.70922189486625      3.18097290648588     -0.63503463757333
  H           3.31738462698662      2.41937134545565     -0.60957854979537
  H           1.52658026715960      0.70529123499133      1.67822116341840
  F           0.55200670038972     -1.47930197397153     -2.04510686148854
  H           1.98463545774119     -0.66158669998616     -3.15887723003299
  H           0.37615701381051      0.11649953282115     -3.22407023016274
