18
Coordinates from ORCA-job NEB_product E -34.457682507200
  C           1.87351158945452      1.29321274233453     -1.19825903899608
  C           0.61692259795149      0.83786279748951     -1.96147725420602
  O           1.57955369904246      1.27151357159764      0.16520686398231
  H           2.72713285305829      0.63499912532067     -1.43249087428311
  C           0.92613490036766     -0.15416890953755     -3.06599179183088
  C           2.21821402584261      2.72271708308337     -1.70416588105908
  C           3.36884897642279      3.28638970515389     -0.93306953706428
  C           3.22481206623185      3.97995825944100      0.18279847491365
  O          -0.47065150132989      1.26526012000091     -1.71646638616238
  F           2.55318812208169      2.61423729386937     -3.03776531352327
  H           1.32471640851743      3.35531299459104     -1.64169074474536
  H           4.34264075628682      3.04284750042056     -1.33384005655949
  H           2.25273545784401      4.23668182959919      0.57227438715799
  H           4.07464686089778      4.33798100712629      0.73747903064914
  H           2.21043483107753      1.82744483887444      0.64448497225841
  F          -0.19035187239237     -0.48428956943920     -3.77392905751374
  H           1.33272676262419     -1.07859384478466     -2.63902193233298
  H           1.64738346602115      0.28723345485899     -3.76507586068481
