19
Coordinates from ORCA-job NEB E -38.026925870460
  C           1.09331025780906     -0.13663025989838     -0.46510559722925
  C           0.70030265850067      0.81545465096555     -1.41810307606990
  C           0.71167847770849     -1.57146491180011     -0.66050788515804
  H           2.10470347516431     -0.07206608446176     -0.07899665526798
  H           1.34281126686174      1.70326157417281     -1.50930957134978
  C          -0.07932490540695      0.48386682533107      1.11700981505577
  C          -1.33277577040501      0.39300186750626      0.47751324682721
  C          -1.66504397106182      1.25587559148819     -0.54830936062164
  O          -0.45782171242422      0.84462121718895     -1.90655537682055
  N           0.19483759725800     -0.28480090443418      2.21515295327224
  H           0.39025362247950      1.46072398324239      1.16017795244614
  H          -1.87909605672688     -0.53332656947293      0.58035749241872
  H          -1.33157744993191      2.28234253753392     -0.51263188290627
  H          -2.58315206686852      1.09336972011215     -1.08830534825506
  F           1.52109535250030     -2.15217619643432     -1.57452853537209
  F           0.88528786914079     -2.30850642338305      0.46508102241432
  F          -0.53351619516061     -1.80958718734848     -1.06255046127830
  H          -0.21681976705500     -1.20602900841027      2.23391718653425
  H           1.13484731761806     -0.25793042189781      2.57569408136023
