19
Coordinates from ORCA-job NEB_reactant E -38.063591344180
  C           1.56424908105238     -0.04932634560820     -0.01279180045801
  C           0.89146910289981      0.85531379208554      0.70402577789523
  C           2.08532881382507     -1.30366379275033      0.59828448423353
  H           1.75740964928893      0.08383729028961     -1.06027801147660
  H           0.53079087847613      1.76148265905886      0.22323295203318
  C          -0.14267926030897      1.47979616721103      5.13922781562292
  C          -0.63977107328322      1.24033658734854      3.92621119711750
  C          -0.02953177385729      1.77580559442551      2.67595779295222
  O           0.62392427813568      0.69927077646192      1.99350425495526
  N          -0.70825715610614      1.06245159585053      6.31936158738366
  H           0.72015053942269      2.12119326756946      5.26149716010832
  H          -1.49122771067979      0.58920568506944      3.79939928088673
  H           0.71518344170119      2.54703241252707      2.91013556901047
  H          -0.79427010470258      2.20669609031186      2.01547439188211
  F           2.94411863234768     -1.08897103335042      1.61407092446616
  F           1.12056670431396     -2.09979001455841      1.09889988550543
  F           2.75239272999049     -2.05005589575716     -0.29944256824350
  H          -1.38268100513073      0.31713639641728      6.23666413901236
  H          -0.08926576738529      0.97324876739785      7.10796516711302
