14
Coordinates from ORCA-job NEB E -26.828668217160
  C           1.18113169073033     -0.59843410253978     -0.57764379574658
  C           0.64058420665773      0.47245814697627     -1.31195654454476
  Cl          0.59396801904558     -2.21231871998460     -0.91133888932349
  H           2.25163252361399     -0.61167968255637     -0.40342368426652
  H           1.25025350373720      1.38252448164633     -1.36935559832401
  C           0.39672226003156     -0.21032983440261      1.12091807440288
  C          -0.97630395663773     -0.20832406355106      0.82803757763464
  C          -1.46182889392597      0.78595435445139     -0.04077351111903
  O          -0.61955072868190      0.56063647273880     -1.50351456878839
  Cl          1.00275388048220     -1.45255366834974      2.17967144447521
  H           0.88969621620334      0.73416019561652      1.32662272562348
  H          -1.50585971666540     -1.14733861910450      0.89209185318752
  H          -1.15604954107585      1.81005885180373      0.14178582310791
  H          -2.48714946351508      0.69518618725561     -0.37112090631885
