14
Coordinates from ORCA-job NEB_reactant E -26.867399463320
  C           2.01932029414483      0.07791250719094      0.07985227159023
  C           1.29383061321036      0.77509308607323      0.94671708269530
  Cl          2.37278964708184     -1.58952930372837      0.30426169651882
  H           2.42874228597861      0.51511232432515     -0.81264173349261
  H           1.09820755528138      1.82564834958235      0.76064935023248
  C          -0.31167999276560      0.72942130926517      5.31897096320617
  C          -0.47645759737115      0.33397198218773      4.06862330960463
  C           0.01910634724285      1.11249927364765      2.89028299462462
  O           0.77417398107240      0.23762629890565      2.07391006146796
  Cl         -0.90453494458098     -0.16044082414484      6.65909392643281
  H           0.18785138774131      1.64601301844420      5.59501017395806
  H          -0.96895044291692     -0.59694323457278      3.83255762231872
  H           0.63408663646267      1.96220399361233      3.21671919056726
  H          -0.84068577058160      1.50041121921157      2.32079309027556
