20
Coordinates from ORCA-job NEB E -37.574002315220
  C           0.69621356497559     -0.81286283039254     -0.67591837002345
  C          -0.51554982207777     -1.38482824277937     -0.23956608387170
  Cl          2.16842481552431     -1.35806240942462      0.09837348034069
  H           0.85118153268743     -0.66801653562039     -1.73941657306224
  C          -1.71475098655450     -1.35305473736279     -1.14585840394831
  C           0.41584549642824      0.93963842359203      0.03324474607728
  C           0.27746340920873      0.70070412347418      1.40799728969569
  C          -0.82270789831773     -0.09934950768264      1.81723101088855
  O          -0.69930792672818     -1.52659730521304      1.03731886954092
  C           1.55447851700736      1.81455986081177     -0.44164489630179
  H          -0.48286753631531      1.17769159552219     -0.53159970251695
  H           1.17013264862555      0.70561332196412      2.01503239259022
  H          -1.80322253713061      0.21149151586365      1.46200948258055
  H          -0.83657480722542     -0.40405486955937      2.85603360527636
  H          -2.35579111516758     -0.50623363602825     -0.88692360664972
  H          -2.30001933192237     -2.25808551873166     -0.99919557103358
  H          -1.42193067346423     -1.27639740313253     -2.18756113059688
  F           2.72782409545432      1.54844880319387      0.16344671761592
  F           1.76119043409979      1.66720723410182     -1.77574506641710
  H           1.32996812089236      2.88218811740358     -0.26725819018447
