19
Coordinates from ORCA-job NEB E -29.584675638830
  C          -0.71493923081408      1.12947745431376     -0.13624581477692
  C          -1.32473050345394      0.39316439111702     -1.15136332952447
  N           0.46471073465049      1.83753211655519     -0.35574513927021
  H          -1.35486100824344      1.53824438304763      0.63573277357620
  F          -2.58893145896981     -0.08109376536611     -0.81684002368615
  C           0.02354419430510     -0.58657800234670      0.79521055005519
  C           0.75537955336154     -1.13341879754260     -0.24610978596051
  C           0.08643074715988     -1.66243496842219     -1.36219693502064
  O          -0.71061723583811     -0.24398705119266     -2.03987902691975
  C           0.71414072784438      0.00272611389047      1.98838485121463
  H          -0.95177434404777     -1.01417618206775      1.00058848746865
  H           1.78608690016111     -0.82744283462565     -0.36046223183653
  H          -0.81433748892652     -2.23906071745412     -1.19285693191813
  H           0.66797426651431     -1.99088725828239     -2.21058768387272
  H           0.40646197880882      2.82738881532659     -0.17317063904411
  H           0.88087539613935      1.62981073969365     -1.25352649429106
  H           0.02585332206071      0.58489652780008      2.59518353149286
  H           1.53875516383103      0.63839077197510      1.67682201738416
  H           1.10997828545695     -0.80255173641931      2.60706182492953
