19
Coordinates from ORCA-job NEB_reactant E -29.608058329990
  C           1.48225592698572     -0.06357142935987      0.26722921415536
  C           1.48071198889911     -1.01557362022065      1.19792250964147
  N           1.75256482719475     -0.29612841641063     -1.07452057054133
  H           1.31575983805296      0.96146805715373      0.55647184904821
  F           1.32261688132925     -0.65217625711897      2.50933473472747
  C           2.98137200947015     -4.20910055834095      3.49538565070181
  C           3.03333152968821     -3.06174367208669      2.83890273131718
  C           2.85542609823617     -2.94398211834502      1.35747456796720
  O           1.60009167259922     -2.33896661097078      0.98476068770967
  C           3.14198900318126     -4.34821110545386      4.97045084026971
  H           2.82366853668327     -5.13342504059802      2.95311387445574
  H           3.17770106191656     -2.13273441530737      3.37303808211995
  H           2.82133932167560     -3.93171716802609      0.89242104712558
  H           3.67273583439025     -2.35716655573737      0.91610401713808
  H           1.22336477692584      0.28096467232991     -1.71135872173385
  H           1.71084790899112     -1.27683857340507     -1.31788125601552
  H           3.28827320189628     -3.37938612936967      5.44053330069575
  H           3.99608088112518     -4.98593268025965      5.19789321836045
  H           2.25726870075911     -4.81817837847297      5.39882422285705
