23
Coordinates from ORCA-job NEB_product E -42.298030949080
  C           2.93164934544683     -0.16311419315334     -2.54768436723837
  C           1.65065105157691     -0.90984606695522     -2.72229375154234
  I           2.61348401605014      0.74783245466179     -0.59270383222472
  H           3.78142525014298     -0.83350772757871     -2.41563529592459
  C           1.68085907021407     -2.39314287794871     -2.33403679809680
  C           3.24363220625661      0.89265137371610     -3.61408843454974
  C           2.14295955758554      1.90442858613192     -3.76280959696309
  C           2.21816655150982      3.13227597686563     -3.28442539267057
  O           0.62788523255608     -0.46960110042319     -3.16261066424661
  C           3.52845765570659      0.21347862224992     -4.96486093798510
  H           4.15294891036087      1.41076332142019     -3.28582031442640
  H           1.26292885968854      1.56957621776278     -4.29189842545107
  H           1.41255802261658      3.83547747364071     -3.40284933222361
  H           3.08677520379419      3.48736099976025     -2.75272504522141
  Br          2.77489714399564     -2.87263693810383     -0.81626291854968
  Br         -0.12610197302229     -3.03296848988577     -2.06355061261208
  Br          2.43794960203858     -3.25365750323421     -3.93529519391789
  C           4.86054091655532     -0.52602982207875     -5.00649858997504
  H           3.54034008876194      0.99783405597483     -5.72461199094093
  H           2.71292571580695     -0.46889564524856     -5.21564462012732
  H           5.67637664826816      0.14364146844417     -4.74310315795656
  H           5.03850942404701     -0.90303585639730     -6.01001678887636
  H           4.87888150004296     -1.37678432962070     -4.32977393827973
