23
Coordinates from ORCA-job NEB_reactant E -42.288087001020
  C           2.02577070514391     -0.21530434216072     -0.24311238656953
  C           1.69875184136869     -0.40187979190417     -1.51956154597429
  I           1.59443993154960      1.55500715274918      0.77422001917078
  H           2.51848289678992     -0.96681874593898      0.34927236437834
  C           2.01300352221432     -1.71905647164821     -2.18707863501604
  C           3.58250476180299      1.07456910894750     -4.52759121959176
  C           2.31331283402448      1.27714883201073     -4.20940510513226
  C           1.83255447194780      1.59025055333557     -2.82768513727435
  O           1.05429118611238      0.49618953496502     -2.29027674990232
  C           4.06308472066373      0.74309171110165     -5.90156356552863
  H           4.35324106202846      1.14081903274732     -3.76829182559336
  H           1.53704985906025      1.19402119643307     -4.95715412902542
  H           1.14171262785729      2.43706468614826     -2.83952045308311
  H           2.67193334455406      1.81432817508165     -2.16193992516103
  Br          1.48141515035827     -3.24846257714197     -1.09196889892929
  Br          1.12022340603985     -1.85544407152922     -3.88787789167053
  Br          3.95485245937726     -1.86001734574697     -2.48711305307237
  C           4.66655939250163     -0.66105240299512     -5.95146479886653
  H           4.82753887293503      1.46878708047693     -6.19092285374826
  H           3.23645312712822      0.81167066141480     -6.61018951639335
  H           5.46966360951271     -0.76175283426628     -5.22486040137601
  H           5.06636712622996     -0.86321159264980     -6.94153002337157
  H           3.90599309079920     -1.40604754943021     -5.73128426826912
