17
Coordinates from ORCA-job P E -21.987232201860
  C          -1.35548288393162      0.42640388273299     -2.30951461766059
  C           0.00174376972237     -1.59808719019924     -1.05232963363697
  C          -1.37230646326173     -1.88452676873471     -1.56629898432993
  C          -2.02914932701003     -0.90733797189873     -2.17073761486778
  C          -0.77394999227374      0.84216743171742     -0.93971112410288
  C          -0.00624020597919     -0.29172315831226     -0.24120510970577
  H          -1.79641648668231     -2.86627407992099     -1.42380354199852
  H          -3.02781745959773     -1.01389635090696     -2.56555431185192
  O          -2.19255256192318      1.42693624155203     -2.84040297115554
  H           0.37274654215703     -2.41413481117602     -0.43201958524776
  H          -0.53328684619510      0.34418324972555     -3.03254492016880
  H           0.68363204054589     -1.48190879717763     -1.90033574045999
  H          -1.61261053474488      1.15910988733615     -0.31412345042306
  H          -0.46899913394106     -0.49613346852411      0.72566212475108
  H          -0.13332790140502      1.71171510667472     -1.08898638425742
  H           1.02395129666242      0.01237032702072     -0.05285034843442
  H          -2.96199385214213      1.51900647009108     -2.26671378644971
