17
Coordinates from ORCA-job R E -21.899723919110
  C          -1.48664243306120      0.11769681759872     -2.90975820618803
  C           0.00749394816404     -2.25395989778486     -1.76970560445318
  C          -1.30641622061205     -2.05372752112835     -1.73209091268127
  C          -2.02843957536741     -0.92324186401482     -2.27423420597832
  C          -0.57755521483225      1.39937111454306     -0.02359605760456
  C           0.03737063898684      0.34198616777232      0.46278147870269
  H          -1.93104146910993     -2.79428203530662     -1.24817799486886
  H          -3.10385792032517     -0.93760359338525     -2.13410130939024
  O          -2.16819217212178      1.17420860472724     -3.40394705175361
  H           0.45123249419616     -3.13089428580489     -1.33148948338296
  H          -0.42881543677475      0.21480705349088     -3.09506927906591
  H           0.68450149417583     -1.55957195287911     -2.23459198124618
  H          -1.62440470789104      1.58212703046499      0.15525009201082
  H          -0.47620191412519     -0.39431267580730      1.05823044487211
  H          -0.06643149903457      2.13492815686207     -0.62235185889931
  H           1.08399619731531      0.15806606349852      0.28581975756371
  H          -3.11186620958284      1.06937281715341     -3.22292782763689
