17
Coordinates from ORCA-job TS E -21.887835822360
  C          -0.48939418272496      0.63726987572892     -1.24378092241497
  C           0.96486159380511     -1.47225663439822      0.05647278710732
  C          -0.36686261171506     -1.55528146117699     -0.20528351575911
  C          -1.08139181548567     -0.51886429802419     -0.83850614781563
  C           0.27029234062612      1.28321585631730      0.89353504823236
  C           0.94874758086050      0.25307109573094      1.45331879732341
  H          -0.94924870964010     -2.33758515902315      0.26220670804929
  H          -2.16418390358303     -0.56721834905961     -0.82413570334139
  O          -1.16984272045973      1.70485392506220     -1.72630156747085
  H           1.44711796556928     -2.24799462654641      0.62925855542317
  H           0.55582880743825      0.70180826040041     -1.49273037572858
  H           1.61827352098966     -0.88969952615910     -0.56640628863793
  H          -0.75656819955363      1.47230192349112      1.15424322049899
  H           0.48094619769622     -0.36059180284696      2.20399273917165
  H           0.78198181980736      2.07471148092328      0.37544331858256
  H           2.02488795646099      0.23195867613676      1.43273063958271
  H          -2.11544564009131      1.59030076344371     -1.56405729280300
