18
Coordinates from ORCA-job P E -31.956494606650
  C          -1.30244160835037      0.38894342147644     -2.38069717911867
  C          -0.02537407678021     -1.62283036318018     -1.04587939400703
  C          -1.39274434242422     -1.89421855644252     -1.58847137435209
  C          -2.01750741629528     -0.92278261078353     -2.23384040919309
  C          -0.75491320215498      0.83832427807690     -1.01398439817099
  C          -0.04279846630064     -0.30086685586998     -0.27336030997998
  H          -1.83384365233356     -2.86559016800236     -1.44044316727262
  H          -3.00976348996613     -1.01874369450926     -2.64232919476083
  N          -2.23434099515558      1.42626106290268     -2.87984086159165
  H           0.31607732427416     -2.42670224815644     -0.39393804290929
  H          -0.49115133930097      0.31249190238891     -3.11515335727937
  H           0.68354897077510     -1.54174631335070     -1.87648215258033
  H          -1.60570190866439      1.17721332814449     -0.41699609510143
  H          -0.50554368864715     -0.45759166625921      0.70204388147385
  H          -0.08548042656982      1.68824874419955     -1.15749872277943
  Br          1.82320579005707      0.19864560269348      0.15222076669900
  O          -1.95437631023382      1.96516894690149     -3.92101802646983
  O          -3.20954116192921      1.65459518977023     -2.20736196260620
