28
Coordinates from ORCA-job NEB E -39.512410939070
  C          -0.25511142932105     -0.84157353952344      1.43568397359288
  C          -0.83099353581202     -0.98646603242536      0.22134340831524
  O          -0.23451617045138      0.38211830340175      2.04774295614543
  H          -0.40833635452219     -1.72864679326633      2.05321477720923
  C          -0.87094268177841     -2.29002389189218     -0.53330611735004
  C           0.83843093340409      1.67989493511724     -0.47768642872700
  C           0.21374843993438      1.38465436286432     -1.61878848570047
  C          -1.01452268756288      0.53469946834826     -1.71410468939501
  O          -1.25767628634283      0.12499610584943     -0.39788510901014
  O           1.72679855033243      2.83656358238066     -0.66688201561459
  H           0.80655897719695      1.27028297008118      0.50463553033497
  H           0.50386195119791      1.94530265634726     -2.49616495226276
  H          -1.06637231403157     -0.30416376343274     -2.39752415218414
  H          -1.81231658770627      1.22102788064627     -2.06474076812731
  C           0.21132115522020      0.37990798342250      3.40253258224032
  H           0.98503469202369     -0.38450442303661      3.46639981281740
  H          -0.52578833984209      0.17290241342597      4.17967188774396
  H           0.53649382319072      1.41009109959155      3.54699274105167
  C          -2.24576990480334     -2.50225184080928     -1.16509152348533
  H          -0.70365823722859     -3.14810115888852      0.11566786412507
  H          -0.09785514255878     -2.32629478455696     -1.30711148505020
  H          -2.28171843034659     -3.54258574095269     -1.51867053695584
  H          -2.45739938190837     -1.86921910106460     -2.01272648701395
  H          -3.01405342124484     -2.41735217384065     -0.40260079315847
  C           3.07171842316459      2.33907788493772     -0.56871789088038
  H           3.79057719602319      3.14782937210243     -0.59077941461942
  H           3.18874573587851      1.68160685830814     -1.43316208659360
  H           3.20374102789450      1.83022736686468      0.39205740255252
