28
Coordinates from ORCA-job NEB_product E -39.565944902000
  C           2.16553727669766      0.26631559033218     -0.41981173177727
  C           1.08725790169252     -0.46190902307217     -1.23069868929218
  O           1.52817393334918      0.98844454336230      0.59936223826569
  H           2.88031579532253     -0.45270137051931      0.01248541518483
  C           1.43694271205843     -1.89364665436049     -1.57302505369498
  C           2.95679759893809      1.15334291047042     -1.42697619642250
  C           2.15385561539010      2.36917066095192     -1.78637512047414
  C           1.62766918992999      2.57174814720221     -2.97838860458019
  O           0.07055766517400      0.07502722627065     -1.57205036949408
  O           4.20416333830450      1.46716851766167     -0.83066117379660
  H           3.13844644547062      0.55012603854428     -2.33554151059381
  H           2.01291226595589      3.07472114066964     -0.98100387093895
  H           1.75436532615675      1.86660172438877     -3.78405149511287
  H           1.03367280193395      3.44233973319255     -3.19500545540600
  C           2.39117212663479      1.44512069608845      1.61502489338382
  H           3.15760700843711      2.11980299072125      1.22554073419911
  H           2.88805561709919      0.60300935799467      2.11281071843488
  H           1.75988518119583      1.96991778288558      2.32950902027370
  C           0.48620076492291     -2.48877701086535     -2.60273968388517
  H           1.38864567879537     -2.46298555509091     -0.64042858594334
  H           2.47112949340515     -1.93157720113575     -1.92263861392238
  H          -0.53770420665152     -2.41567026018879     -2.24695057851367
  H           0.72485454134651     -3.53330483788155     -2.78539732743752
  H           0.55613365654961     -1.94256980594018     -3.53991588066778
  C           5.10523346565193      2.08133685655703     -1.71780539958016
  H           5.31571114821922      1.43111974380599     -2.57628260508175
  H           6.02137196704053      2.25041058672732     -1.15554803763493
  H           4.71783569097917      3.03661747122762     -2.08853703549174
