28
Coordinates from ORCA-job NEB_reactant E -39.572243753610
  C           1.46278111024729     -0.11762173753527     -0.30288038044734
  C           1.36799390903834     -0.52547230312086     -1.56788181722645
  O           1.47956046149896      1.18875363408767      0.14453236023314
  H           1.51846527279683     -0.86653921119857      0.48033980209084
  C           1.25187771778038     -1.99291423579225     -1.89239204238935
  C           3.82453772246498      1.38844916818403     -2.19570005963403
  C           2.73784404967806      2.14525794081659     -2.23783071415275
  C           1.38100803797896      1.62570401589232     -2.61984562628369
  O           1.28895833731821      0.22218416587129     -2.70885019865608
  O           5.08746679884818      1.74371230028918     -1.84247247085987
  H           3.80021039312797      0.33878001264119     -2.45330995797802
  H           2.75207922722034      3.19285548576811     -1.98219959288978
  H           1.11569687176912      1.97983312371754     -3.62444952360917
  H           0.63890258926392      2.01107786823028     -1.90951248841432
  C           2.35002611058951      1.40240171065611      1.22687164429588
  H           3.39621286025099      1.26391036046179      0.93004341048697
  H           2.12599195985544      0.72080571174728      2.05639462444307
  H           2.19597376069709      2.43034768345885      1.55150588115298
  C          -0.21036251793957     -2.40013510601468     -2.07401572433077
  H           1.70545310333006     -2.58402243159434     -1.09688314496730
  H           1.79243234158913     -2.17784535382492     -2.82163610373663
  H          -0.76596825427487     -2.23235048990360     -1.15455368863859
  H          -0.28104441066497     -3.45257465681910     -2.33845179623046
  H          -0.66418411524294     -1.81018106234490     -2.86562786502208
  C           5.30224181070728      3.08538046373463     -1.47803454459051
  H           6.35768139630216      3.16353615133120     -1.22247224815910
  H           4.69351961194628      3.36417437963620     -0.61139691428418
  H           5.07544384382288      3.76339241162424     -2.30709082020240
