19
Coordinates from ORCA-job NEB E -33.365972195970
  C           0.70854072564327      0.37064990897201     -0.86852659243271
  C          -0.25765606614368      0.71236016890768      0.24931412822008
  O          -0.12163064220800      0.30729490750318     -1.98947437669647
  H           1.45307145570138      1.17286544925958     -0.97112304943127
  O          -0.10968151295136      1.87715582966734      0.79324180844050
  C           1.36293755380202     -0.93972919309207     -0.46725865970446
  C           0.52992739247818     -1.87875909306959      0.08447394847571
  C          -0.87221507222515     -1.66937787336460     -0.01969847161108
  O          -1.12768602343186     -0.09719541520936      0.63353796400464
  I           2.22686265662409     -1.63054438523876     -3.01253780762518
  H           2.40182396041217     -0.90336562660392     -0.19075804275496
  H           0.91652218861173     -2.68318043434448      0.68541501157438
  H          -1.52140002251410     -2.26928601395822      0.60408003353858
  H          -1.28577018848674     -1.44922650367871     -0.99998647586821
  H           0.37626742882762     -0.22608365999503     -2.66462891682123
  C          -1.00808339356055      2.25079583395433      1.84083726295354
  H          -2.01767211308365      2.36585563201221      1.44376102121826
  H          -0.64003249156186      3.19840867167885      2.22507918158648
  H          -1.01412583593349      1.49136179659955      2.62425203293342
