19
Coordinates from ORCA-job NEB_product E -33.412882243630
  C           3.21012116518049     -0.41160189200589      0.63174071996853
  C           2.07156490498948      0.00131385750980      1.57418900898795
  O           2.70924584291377     -0.40322247804294     -0.66865758532724
  H           4.02999402508225      0.31521553021063      0.75404819810025
  O           2.52953741216407      0.84942045905170      2.49559611889671
  C           3.67066850732662     -1.79455127898333      1.10690117228185
  C           2.59584044566118     -2.81113244332564      1.01690457516956
  C           2.32878742165022     -3.67414331813639      1.98095918853818
  O           0.94820951197637     -0.40617317985546      1.52287348797253
  I           5.36066600289040     -2.42138909008402     -0.15391795599672
  H           4.08984959886237     -1.72925238821230      2.11087516875154
  H           2.02041738960869     -2.79445701745752      0.10203337833561
  H           2.89460638861234     -3.69855836503461      2.89893521111913
  H           1.53093301517511     -4.38935861576368      1.88968967745952
  H           3.38283659700693     -0.76006194440982     -1.26706761001745
  C           1.58005520949580      1.29491033378836      3.46011582375553
  H           2.11629286418444      1.96765328126672      4.12371264591589
  H           1.17763464616082      0.44407372511149      4.01299726524293
  H           0.75803905105867      1.81421482437291      2.96507151084571
