22
Coordinates from ORCA-job NEB E -52.437649350310
  C           0.60737889117609      0.49445978889077      0.78123274232922
  C          -0.69924731938061      0.63151165038899      1.27954795794841
  C           1.19716605327805      1.66231225056069      0.02548148352494
  H           1.32333783996246      0.02703059082849      1.45613349147687
  N          -1.09623188570305     -0.25142376613171      2.36105864354087
  C           0.21094449642583     -0.87479156271012     -0.52122589165686
  C          -0.83687019158767     -0.32113896210208     -1.25892046052461
  C          -2.06276452362973      0.01434597207871     -0.57480419311032
  O          -1.66203275232374      1.04707415538796      0.50165590045304
  C           1.47578026879437     -1.22956390710416     -1.27868455429939
  H          -0.00756449880320     -1.66018895196699      0.19805909924170
  H          -0.61102070463873      0.17644451899424     -2.19137325602214
  H          -2.52516420005333     -0.78854094469385      0.00226345530198
  H          -2.79570747415696      0.54237301460895     -1.17592091790843
  F           2.48488405817719      1.40730088227938     -0.33959708311968
  H           1.23042210571828      2.53049092338121      0.69615031841865
  H           0.63698845162607      1.91897000053595     -0.87846475041920
  O          -0.21735740172175     -0.69195316565538      3.07510352217234
  O          -2.27963157452787     -0.50035306891815      2.45460500524555
  F           2.53666261057847     -1.35891256292630     -0.48347882711315
  F           1.31083535764003     -2.41945836213157     -1.88847811340526
  F           1.77919239314978     -0.35598849359503     -2.24034357207452
