17
Coordinates from ORCA-job P E -25.752592501530
  C          -1.42575370261793      0.96439201784448     -1.66333184505678
  C          -0.85625442283873     -1.27017785791123      0.21024949556714
  C          -1.82261479101224     -1.36371810055296     -0.92899580790907
  C          -2.07197813314076     -0.37119127880418     -1.76954293662621
  C          -0.76037949979180      1.18228203697380     -0.31415204269561
  C           0.07135492372779     -0.05677632269566      0.04888200513627
  H          -2.31779320416268     -2.31565163238555     -1.05344703669055
  H          -2.75338910850558     -0.51171818133445     -2.59587118701008
  I          -2.91117022137883      2.54048451305433     -1.99437605984278
  H          -1.40963682752083     -1.18087550546852      1.15108232161838
  H          -0.71441216201818      1.10389113692735     -2.48099257612783
  H          -0.26755448325652     -2.18970948985621      0.26615423490452
  H          -1.51970757296469      1.32031900116423      0.45896639591580
  H           0.61830587704664      0.12537661325838      0.98190021397825
  H          -0.13062855467749      2.07427480886857     -0.34005136034802
  C           1.04623259002532     -0.31928401919345     -0.98513661383465
  N           1.80941929308650     -0.52520773988894     -1.81051720097878
