17
Coordinates from ORCA-job R E -25.656472734400
  C          -1.24526771114224     -0.45863119521570     -3.16126478258668
  C          -0.06217552281676     -3.11295082617605     -2.41831708091994
  C          -1.33596194472061     -2.86487042519737     -2.70014876002130
  C          -1.92945978583386     -1.54180249953949     -2.81978595009876
  C          -0.81317085530966      1.91217771029645      0.25065133930741
  C          -0.39315269607693      0.65253808560103      0.26576665728892
  H          -2.02990740649471     -3.68491784318907     -2.84009200851443
  H          -2.99455774543743     -1.48155342656876     -2.63849049402294
  I          -2.12994319002334      1.44051336786513     -3.32192492800974
  H           0.30687569694651     -4.12183092387050     -2.34864580351694
  H          -0.19507867219933     -0.45829018498563     -3.39010649424815
  H           0.64905351250722     -2.33003601194300     -2.21690812622840
  H          -1.61650021214925      2.24699330159787      0.88453585411487
  H          -0.82980971861682     -0.09987163040266      0.91060624771206
  H          -0.37099489064208      2.64873296550857     -0.40010019071949
  C           0.64559315328263      0.19463574280863     -0.56749901404465
  N           1.47992798872664     -0.19749620658943     -1.25002646549183
