17
Coordinates from ORCA-job TS E -25.643590319850
  C          -0.73543156749785      0.77379395362475     -1.27734763685720
  C           0.65245784838653     -1.51250849242278     -0.24748863791883
  C          -0.67877800908148     -1.51447024303441     -0.49481380822472
  C          -1.36537866295727     -0.40887593045545     -1.04667443291526
  C          -0.14695730914487      1.29268082591602      0.81050362665126
  C           0.59266821785547      0.27506523004919      1.34130238530686
  H          -1.28681279910508     -2.32653056224008     -0.11976585762230
  H          -2.44432699761426     -0.45677278714099     -1.08473981543676
  I          -1.81525212996149      2.44152291973210     -1.99322597256168
  H           1.11305631990806     -2.32938875440239      0.28304951096182
  H           0.31075353444116      0.84036557602549     -1.51655911944705
  H           1.33298159602133     -0.86603738619431     -0.77196019235527
  H          -1.17520525893025      1.41532889451867      1.10554075541653
  H           0.15106296576556     -0.45526915265826      2.00338511782508
  H           0.34923377053639      2.16700840689412      0.42191326739574
  C           1.99985613510145      0.30854272159727      1.30563057080013
  N           3.14607234627662      0.35554478019108      1.28125023898165
