16
Coordinates from ORCA-job NEB E -32.773420515620
  C           1.11858721880105      0.07545237634244     -0.30337623972674
  C           0.48634822120927      1.31664334979055     -0.66622390358325
  N           0.78619749207641     -0.96463758953916     -1.30758750629175
  H           2.20170353709432      0.11878421055180     -0.18962843924738
  H           1.05549138507142      2.24092330975886     -0.66013880092416
  C           0.37545933022260     -0.45919463765206      1.09335829344037
  C          -1.03078906550666     -0.51500067290910      0.81057464161725
  C          -1.64203052426143      0.69763245643259      0.36501513430467
  O          -0.79492901757397      1.38587379369035     -0.78355052198262
  Br          1.16588724199058     -2.16878654774137      1.61042294678155
  H           0.69451262773719      0.26807989115931      1.83783463804334
  H          -1.49712555896117     -1.45906622618636      0.58823007255355
  H          -1.62985882213312      1.52571736889103      1.07262537253329
  H          -2.62506823126844      0.56690716214823     -0.07505571053452
  O           1.72058636654806     -1.43558711101454     -1.90975230979127
  O          -0.38497220104613     -1.19374113372254     -1.48274766719233
