16
Coordinates from ORCA-job NEB_product E -32.807392059650
  C           1.77625169290259     -0.47122796841894      1.81099099923899
  C           1.42420886792302      0.82159295055808      1.07126051497061
  N           1.53940839198841     -1.61886391004862      0.88217570171846
  H           2.86526165180224     -0.44168746983038      1.96274029958253
  H           1.63559155285278      0.75580288237596     -0.01062836013257
  C           1.05800146346695     -0.56232329103766      3.15502895677185
  C          -0.42852848606159     -0.65207771414147      3.06564645026001
  C          -1.22523596507736      0.25468317040863      3.60064307783139
  O           0.99264485259089      1.79678172632995      1.60037091227888
  Br          1.77549056272603     -2.11989627889935      4.16247863121447
  H           1.34719746033308      0.31135572542293      3.74544027711700
  H          -0.82136174939110     -1.52162569137625      2.55898365082642
  H          -0.84222249586298      1.11919290478802      4.11750459311419
  H          -2.29519204130386      0.17184061116373      3.52824779768244
  O           2.09595811498103     -1.53271059564927     -0.18361076053160
  O           0.82232612612986     -2.50863705164537      1.24282725805693
