16
Coordinates from ORCA-job NEB_reactant E -32.812517363520
  C           2.19936586928672     -0.39959176972171      0.68317065559236
  C           1.37079700750748     -0.12396179000612      1.70361521510197
  N           1.77625924816048     -0.90862221092556     -0.57049468658767
  H           3.26193188090451     -0.24593503752309      0.76433424536713
  H           1.79832537466669      0.25648980156399      2.62962543293971
  C          -0.03063879027805     -0.65277017011066      5.14011414889772
  C          -0.39576363731385     -0.99493715594041      3.91683556893373
  C          -0.67743469610080      0.00551088877660      2.83545466291141
  O           0.05842172464520     -0.27813761997895      1.65616468015660
  Br          0.31692677014538     -1.91691852575742      6.49731475056156
  H           0.07761654363795      0.36871253909746      5.47235675486124
  H          -0.49080394500785     -2.03175597462685      3.62760349452019
  H          -0.46795288696227      1.02513450332727      3.18297841546722
  H          -1.72500909179820     -0.06282014930090      2.52700042582856
  O           2.65140754067519     -1.10435703253711     -1.39326102716772
  O           0.59635108783142     -1.11964029633654     -0.75571273738401
