19
Coordinates from ORCA-job NEB E -39.894404976580
  C           0.54371646126576     -0.87734960274829     -0.22545383989034
  C          -0.67478519114296     -0.55189969790042     -0.84745499076347
  C           0.47340756882436     -1.72762939813464      1.02382782604958
  H           1.34171419832379     -1.19242768221921     -0.89664446332982
  N          -0.63038432891868     -0.15853475459004     -2.23606502498637
  C           1.04607637491641      0.88264628861848      0.29131506764428
  C          -0.05848754936902      1.31673882801308      1.02143775092325
  C          -1.34268087818011      1.37880997199056      0.35453589077791
  O          -1.65192432720750     -0.04164738100541     -0.13714961386903
  I           2.93272134770144      0.83418136859172      1.27487058287570
  H           1.19246302008778      1.26256280399740     -0.71246416814555
  H          -0.04323882857387      1.25556573336974      2.09980584534744
  H          -1.36984021523642      1.97832138660894     -0.55846324009109
  H          -2.17786987820550      1.62075260795074      1.00492099837791
  F           1.71725307056771     -2.12938293565426      1.41233722014706
  H          -0.09199499651171     -2.63925568740087      0.79547338792224
  H           0.00967733926386     -1.21421271814864      1.87088035040938
  O          -1.52028398061885      0.56632526088103     -2.63269205917738
  O           0.30446079301351     -0.56356439221993     -2.90301752022171
