19
Coordinates from ORCA-job NEB_reactant E -39.918699449330
  C           1.88891876689601     -0.20526326245894      0.09977204578498
  C           1.73637428056367      1.03538123937114     -0.36060794501600
  C           1.13253852664542     -0.76135626156849      1.25686305741638
  H           2.58607144215995     -0.86813893666161     -0.39380560191249
  N           2.52762277625096      1.47483552942039     -1.52194561179271
  C           2.43311928190166      4.89195047160891      0.24793800311007
  C           2.49794613529874      3.65379720407837      0.69952339236363
  C           1.27705446971150      2.87338445563912      1.08593528941948
  O           0.84595670989282      1.95072566604797      0.07509520857394
  I           4.12109952020478      5.99968148718551     -0.30100280989515
  H           1.50675313928624      5.42861459487220      0.13303123038266
  H           3.44576095702547      3.13946025022163      0.78546509235889
  H           0.41702874821859      3.53148641689649      1.21761850770328
  H           1.46650194262438      2.32129181171727      2.01645494445852
  F           1.10496890871515     -2.12565323267202      1.20049411928518
  H           0.09508000925836     -0.40786704974710      1.26648705658772
  H           1.62011008868745     -0.50008570744965      2.20674525585227
  O           2.29883984655920      2.58218369237383     -1.94440291388847
  O           3.34635445009964      0.70067163112497     -1.96215832079221
