19
Coordinates from ORCA-job NEB_reactant E -47.829091632990
  C           1.96743849654836      0.23596907959831     -0.18301892740274
  C           1.38651212032420      0.86516968108693     -1.22240622982912
  N           1.77991109575940      0.48020969178057      1.19952046768136
  H           2.65844884171736     -0.57182636327580     -0.36864178665362
  I           1.73285719177891      0.04816749216496     -3.14843999801639
  C           2.06913192597600      4.92511425347003      0.07102062345948
  C           1.91698635458276      3.63739022771124     -0.19493373489499
  C           0.58595839851260      2.98814137810243     -0.39920189471594
  O           0.64660863865559      1.93628074266075     -1.36289922589025
  C           3.36821838945052      5.60184544029534      0.31854337533587
  H           1.21820184551801      5.58753352989718      0.14337220951516
  H           2.78063998927359      2.98986999785157     -0.26291504338099
  H          -0.14278297887829      3.68797004984504     -0.81202336183109
  H           0.21650267288111      2.59939089652789      0.56212005557229
  O           2.65242327281242      0.08698864582799      1.94218453470550
  O           0.75038022250870      1.02427748382108      1.56793419861806
  Cl          3.55916985058351      6.93946820454019     -0.85376251981535
  Cl          3.35852946932008      6.29954382396080      1.96700526225333
  Cl          4.77016420267516      4.53349574413349      0.17494199528943
