23
Coordinates from ORCA-job NEB E -49.373241564110
  C           0.36999596451654      0.68575312833389      0.63106845950195
  C          -0.96313943087332      0.46551983698779      1.02044522448497
  C           0.66436488768526      1.91079596908162     -0.19900317537164
  H           1.12247741818097      0.58545361873906      1.40892632608171
  C          -1.26112468086546     -0.29125690292163      2.29484016616470
  C           0.62154358727723     -0.80600674093396     -0.55566682299570
  C          -0.43769861965653     -0.66576333285150     -1.45686066627574
  C          -1.77182327744305     -0.70021809477511     -0.94669156959843
  O          -1.90159400328894      0.49223147715182      0.11565411135520
  C           2.03835636513614     -0.77644114058775     -1.08308279390482
  H           0.51473051956605     -1.56309823171559      0.21802908496139
  H          -0.26282503474148     -0.15956718364901     -2.39406813732878
  H          -2.02196342345778     -1.55771905986678     -0.32348512630404
  H          -2.55586670527445     -0.46728438261881     -1.65716321132162
  F           1.96100761251044      1.98296335527522     -0.55303436891696
  F          -0.03783400218300      2.04139599200475     -1.32312019412070
  F           0.42781913316570      3.01941930864968      0.52616065668975
  F          -0.12838462205735     -0.53661971931108      3.01982816175402
  H          -1.72101833467404     -1.26289729880156      2.06448494752043
  H          -1.94338150261895      0.28313437471018      2.93153167579931
  F           2.39551904008646     -2.06225468543413     -1.41749852383601
  H           2.75905677359425     -0.44343796470102     -0.33031837092131
  H           2.13178233541535     -0.17410232276606     -1.99097585341767
