23
Coordinates from ORCA-job NEB_product E -49.406943209660
  C           2.81995078077878     -1.24122190846525     -0.29130192972783
  C           1.34609790082712     -1.34500360389529      0.13683607494884
  C           3.09771448195928      0.18909153774070     -0.75224707511169
  H           3.47989404034176     -1.40227644950122      0.56789527991095
  C           1.17452278337997     -2.03427856212144      1.47861862510825
  C           3.09712892691494     -2.33047655941806     -1.36124345162519
  C           2.07668203781195     -2.34228999322304     -2.46724534984358
  C           1.24903556051890     -3.34806836916390     -2.67424017255980
  O           0.44596608999664     -0.94214349646917     -0.53371476981628
  C           4.51216402840703     -2.19685873055052     -1.94138331569737
  H           3.05515743486116     -3.29647936683744     -0.84362675038851
  H           2.06440773458413     -1.47753215927642     -3.11280051590842
  H           1.24359403320311     -4.22556036903530     -2.04802947515449
  H           0.54201512103618     -3.33615381020945     -3.48400845649711
  F           4.42015128068324      0.42067344374170     -0.86039481476286
  F           2.55981990826767      0.52938794282005     -1.91661757805739
  F           2.65207608549737      1.06526302671036      0.16305835786826
  F          -0.13577178110770     -2.28254483941762      1.74461194723784
  H           1.55794324485690     -1.38579020350891      2.27701975808087
  H           1.70337148571852     -2.99488988707447      1.49090868235144
  F           4.85466883124107     -3.37824023786306     -2.54316257233733
  H           5.25897498394886     -2.01454423533120     -1.16108786219171
  H           4.57143500627310     -1.41956316965104     -2.70874463582686
