19
Coordinates from ORCA-job NEB E -35.959374628010
  C          -0.00409012820144     -1.27446278404962     -0.10766665986750
  C          -1.37098424497090     -1.20599969961490     -0.39734903172017
  N           0.38495546160973     -1.34194088937943      1.28851201714097
  H           0.62042396617761     -1.92309136226010     -0.71352848644811
  Br         -1.87012218417890     -1.89343717464829     -2.16436709906562
  C           0.54600525774500      0.58374799704611     -0.51711917519272
  C          -0.37734461501888      1.29074452533849      0.25084363346307
  C          -1.75675517719099      1.19578633749395     -0.06079789397985
  O          -2.17245096426558     -0.41297500975221      0.15378538510077
  C           2.01000740384744      0.65104198758281     -0.19061050560621
  H           0.33993947060418      0.48736375825155     -1.57981695920399
  H          -0.10157330206615      1.59270601267952      1.25026058106853
  H          -2.04002661792299      1.28565447657404     -1.10615289317104
  H          -2.44904714915373      1.67819623162663      0.61596070209101
  O           1.32810218316107     -2.06094356782902      1.53303388988264
  O          -0.24090158795320     -0.70301413019945      2.09838647373273
  H           2.55383756607045     -0.18569022182759     -0.62198988602306
  H           2.18066668597700      0.66909419234283      0.88303716456363
  H           2.41935797573028      1.56721932062468     -0.61442125676509
