19
Coordinates from ORCA-job NEB_product E -35.997347036460
  C           2.84935210919236      1.28566118219943     -0.85786944827228
  C           1.38898499388352      0.99590138050408     -1.03393679689261
  N           3.29157770101095      0.84661934345181      0.49744038997897
  H           3.44022895712402      0.71562029496953     -1.58472386767548
  Br          0.87389143426400      1.20931831767163     -2.91760172531489
  C           3.11651938248203      2.80749908429360     -1.05513491592034
  C           2.13183152996410      3.63003140606424     -0.27151416418220
  C           1.23230645208457      4.41342539719122     -0.83550346190164
  O           0.57905782867533      0.67920510360862     -0.24335323318133
  C           4.55538031055440      3.14575986885887     -0.66606129313496
  H           2.98016283363946      3.00862602133931     -2.12314670699134
  H           2.19792577956564      3.54278076162012      0.80375123372125
  H           1.14967970075308      4.51141682332172     -1.90642891356527
  H           0.54272807085205      4.99413272782787     -0.24863772558068
  O           4.20840117406769      0.06447175994140      0.51676662555792
  O           2.72169567640745      1.30007088447831      1.45174734974304
  H           5.26172197663965      2.50173250194168     -1.18536747916514
  H           4.71009172657717      3.04313875487432      0.40584627997941
  H           4.76466236226254      4.17728838584224     -0.93667214720242
