19
Coordinates from ORCA-job NEB_reactant E -35.985025300340
  C           2.17647956669753      0.47190252501490     -0.70104116274378
  C           1.39330240997623      1.23142591488203     -1.49192691621239
  N           2.48111689443398      0.68779536215438      0.66327470490027
  H           2.66118258360898     -0.39896501119519     -1.11446869761862
  Br          1.06112049377744      0.56093070591767     -3.24644415395361
  C           3.52924770410539      3.44204300841443     -1.24684913458395
  C           2.63321213872777      3.66615777610489     -0.29948080260580
  C           1.16806338627277      3.35140230259517     -0.37621107838311
  O           0.81926632971870      2.40050401503244     -1.38537061114904
  C           4.97936378307936      3.75380923319746     -1.11948245928611
  H           3.23869143966448      3.00178561855354     -2.19365177667376
  H           2.92773643092890      4.11163161248954      0.63981437674201
  H           0.59336972367201      4.24063149206727     -0.65570589482483
  H           0.82260817889413      2.99595694710701      0.60203293249234
  O           3.53679865029943      0.24123836140880      1.06031811584009
  O           1.66483597651092      1.26150878597010      1.36369872043253
  H           5.19540673672322      4.22825082137652     -0.16632284215311
  H           5.29223893969142      4.41338609858826     -1.92756199856968
  H           5.56385863321734      2.83740443032080     -1.19712132164944
