18
Coordinates from ORCA-job NEB_reactant E -34.281397639860
  C           1.89281245563907      0.32756314481968      0.21715258416854
  C           1.45139006316634      0.68746721491327      1.42011261319280
  F           2.44373633715693     -0.87971084439961     -0.05293916122868
  H           1.85712803230704      0.97012466935777     -0.64454357853819
  Cl          0.77606433634536      2.27190064907499      1.55127152454185
  C           4.24451204773639     -0.80140783093682      3.90765268101769
  C           3.56851231465770     -1.02192043705692      2.78410369013575
  C           2.08139626849300     -1.18550730697205      2.78346697035246
  O           1.39210402252361      0.06354762054202      2.59862209638379
  O           5.56639474252118     -0.61228228493544      4.06804874305548
  H           3.74690612754693     -0.76651405824431      4.86844600260517
  H           4.05341533961534     -1.04941555164542      1.82216567115157
  H           1.72498301299118     -1.51980511398244      3.75954055005014
  H           1.76506177104273     -1.89661027161299      2.01529548184434
  C           6.37480141104619     -0.61291987828447      2.91212329102654
  H           7.39201574507509     -0.43723482538666      3.25665540632530
  H           6.07813338232338      0.18311469842208      2.22284327871081
  H           6.32273258981254     -1.57568959367269      2.39538215520464
