18
Coordinates from ORCA-job NEB_product E -34.288882194780
  C           3.21376320771176      0.60816991448843      1.46233343908189
  C           1.72570942980116      0.70234745986728      1.26495445426736
  F           3.75594944058078      0.01913602970660      0.34676298781189
  H           3.66669180746337      1.60228561114663      1.55693443874141
  Cl          1.00120147954377      1.77341764059640      2.46594160444300
  C           3.54073749684163     -0.22758619760738      2.74609806138647
  C           3.13294830310137     -1.65864499344813      2.52029749402945
  C           2.30210047206255     -2.30290689775990      3.31646691025436
  O           1.05931670262070      0.14604625159806      0.46457924190355
  O           4.87114948764745     -0.03401478790453      3.15249419599241
  H           2.95303984059609      0.20787653026390      3.56278637961815
  H           3.55068890378024     -2.13286878956823      1.64394196205598
  H           1.87375486391737     -1.83769145753106      4.18912593085512
  H           2.01784971945253     -3.32351858202430      3.12744647856820
  C           5.87590537982454     -0.74044543339516      2.44795838541065
  H           6.81733612964148     -0.37516139341671      2.85366196535780
  H           5.84478290332418     -0.54257533928988      1.37443697395748
  H           5.80157443208901     -1.81746556572200      2.62407909626482
