22
Coordinates from ORCA-job NEB_reactant E -37.464193285260
  C           1.16199204534174      0.48854667014471      0.10669147378621
  C           1.48883386264369      0.97927587554970     -1.08722700372925
  O           1.48444801249963      1.04842444145745      1.32685639339911
  H           0.58974949104229     -0.42646601826057      0.13561724881616
  C           1.06822846487711      0.27941332736095     -2.35740965641828
  C           4.75209365818229      4.24664494959103     -0.85939049794820
  C           3.44749662168744      4.04891328064834     -1.00069098219170
  C           2.73595601626436      2.89530742209258     -0.37117574275603
  O           2.19482103080793      2.09952009287249     -1.42271657570599
  O           5.51441662869899      5.24046079782379     -1.36628290781811
  H           5.36414518916138      3.58787736827805     -0.25742646973274
  H           2.82955292288490      4.69139669996628     -1.60714543173325
  H           1.92047452545706      3.25070219182942      0.27051860260671
  H           3.42400157815982      2.29795640653583      0.23520749132225
  H           1.16566139605572      0.47231578446696      2.02663795292945
  F           0.35442329753694     -0.86208025386514     -2.11259793184502
  H           1.95038243813684     -0.00660666645759     -2.94124543676723
  H           0.43240956178988      0.93727892973541     -2.96067680026655
  C           4.88052016586103      6.19251256851187     -2.18857945965664
  H           4.10353979791041      6.73376468572088     -1.63982459897999
  H           5.65827434340164      6.88757335476562     -2.49980787565418
  H           4.43587895159892      5.72036809123192     -3.06983179165673
