22
Coordinates from ORCA-job NEB_product E -37.465827471690
  C           3.03079217128775      1.48364526232732     -0.66740658546958
  C           1.62754451099459      1.29474622068635     -1.23421969345593
  O           3.04931885236948      1.12850661630737      0.67951004550543
  H           3.75543407620910      0.86466618790722     -1.20828691968691
  C           1.54882003456369      1.25846735894219     -2.73998155720507
  C           3.46491201639371      2.97442857207895     -0.84689775903070
  C           2.37671658853726      3.89394425211404     -0.36609881596560
  C           2.31652445394530      4.37319359289082      0.86166662208013
  O           0.68549433839270      1.19953247226865     -0.49150287707911
  O           3.78383744461491      3.16489923809146     -2.21080391917061
  H           4.36583650190926      3.10345333482718     -0.22629463649128
  H           1.60880338826816      4.11356924739129     -1.09599541545970
  H           1.50224150120568      4.99640299417426      1.18780318722573
  H           3.07530199758107      4.14600679972418      1.59232931747778
  H           2.13471927228293      1.19125810555893      1.00442919748092
  F           0.25825375324578      1.31412415883287     -3.18450485664584
  H           1.98203921084422      0.31935225229085     -3.10457785303783
  H           2.10023152210629      2.10432989279027     -3.16492449586211
  C           4.45540170391187      4.37977534109674     -2.45929220125542
  H           3.84472284173697      5.24149175917578     -2.17074936138825
  H           5.40484569868661      4.42023510335470     -1.91383993013036
  H           4.64780812091267      4.40827123716860     -3.52966149243569
