20
Coordinates from ORCA-job NEB E -49.688025214320
  C           0.52383573487807      0.82203621957147      0.21627997618151
  C          -0.75871769160593      0.42741783068878      0.64452383084610
  C           0.63764257284589      1.83911125285603     -0.90180494271768
  H           1.23178880022952      1.07003925583038      1.00209308032878
  C          -0.93619569758402      0.08753629663663      2.11869978525848
  C           1.22361507262186     -0.78975377061081     -0.63651622859225
  C           0.16804694073172     -1.70813059590028     -0.69945929114992
  C          -1.05327192405928     -1.24796697210889     -1.24277205491045
  O          -1.60470397292133     -0.07325296387047     -0.17525675792382
  Cl          2.62898288359909     -1.24288849937979      0.28105518633066
  H           1.51036142961214     -0.28633958112305     -1.55284368666825
  H           0.13345163169484     -2.49164456638279      0.04504309345494
  H          -1.88909325593604     -1.93566316081892     -1.22837327021543
  H          -1.00257948014770     -0.65168955726182     -2.14658108114613
  F           1.93098495735477      2.01370150048338     -1.25921557813114
  F          -0.01395462205324      1.49079818955646     -2.03168610450490
  H           0.24823579851185      2.81978268411713     -0.58088694218575
  Cl          0.10636437298792     -1.29435413244726      2.58220493824186
  Cl         -0.46915637081391      1.48402940829939      3.11180774087734
  Cl         -2.61563717994621     -0.33276883813556      2.45368830662606
