20
Coordinates from ORCA-job NEB_reactant E -49.723765552820
  C           1.68613842197056     -0.16919715431962      0.06656161318910
  C           1.58835247417930     -1.40320358215135      0.58032610680258
  C           2.02013072013095      0.26840593187090     -1.32499291204876
  H           1.49027147500158      0.65234742554055      0.73439595024531
  C           1.25163405133321     -1.58260264174779      2.05558544842339
  C           3.69019554573766     -4.83359485006935     -1.70706557813942
  C           2.52298736559841     -4.31891949531289     -1.35922892092464
  C           2.28723295610421     -2.84580586695189     -1.24156651680921
  O           1.77734750353252     -2.61981220902412      0.07348181575028
  Cl          3.95143337721804     -6.51924110352318     -1.86251164700623
  H           4.55797410674722     -4.23505236991078     -1.94121537576613
  H           1.67864425268096     -4.94860795731209     -1.12344857863837
  H           1.54318177148644     -2.53335769683531     -1.98328213399250
  H           3.21906563852449     -2.29557964539806     -1.39245102008885
  F           3.29297886273511     -0.05216452639235     -1.69433202189889
  F           1.21676767614932     -0.29516441258696     -2.26773084303118
  H           1.92325243947045      1.35855774684623     -1.42950702661649
  Cl          2.78211068885667     -1.94646083104623      2.90150603078487
  Cl          0.51632342535964     -0.17139371087488      2.81148389427419
  Cl          0.14597724718327     -2.95385305080081      2.26029171549096
