29
Coordinates from ORCA-job NEB E -34.389066463440
  C          -0.18814560408190      0.60743700902057      1.54840316467690
  C          -0.90369927819241     -0.50889020760825      1.64817863453649
  C          -0.44725779491648      1.84451540206616      0.73748291183276
  H           0.70368277515077      0.64955144271898      2.15750897573723
  C          -0.52920300344665     -1.63011870355830      2.57641434059311
  C          -0.07061220049399     -1.07179172594540     -1.76379118737866
  C          -1.11540500576218     -0.80514396947870     -1.18415767583283
  C          -2.26117728218011     -0.47046404639690     -0.35451858327223
  O          -2.08248248946489     -0.82625615458849      0.99544402689058
  C           1.16573998514474     -1.30474857728060     -2.46499520202349
  H          -0.63446488900485     -2.56484452273950     -0.76322610542198
  H          -0.60313368071464      0.78155314070927     -2.19634587640489
  H          -3.13656435016991     -1.04194041117077     -0.68489591667428
  H          -2.46837021762716      0.60087030371995     -0.47773920200988
  C           0.64398998937913      2.88653627408973      0.95641009815451
  H          -1.41341885978192      2.27485230176907      1.02240743750979
  H          -0.49415631045115      1.60484216462930     -0.33123766349288
  H           0.69691641208275      3.17479279008898      2.00466092326008
  H           0.44187198910390      3.77675862509344      0.36487432297320
  H           1.61222590670945      2.48994375961076      0.65774335537018
  H          -0.23389182338414     -2.50269748940232      1.99499932111385
  H          -1.39605390637326     -1.90684463596217      3.17328982592336
  H           0.28534050975531     -1.34212173754195      3.23290824590021
  C           2.29619180780294     -0.48198489911495     -1.84315755333948
  H           1.02470601490170     -1.02552046890764     -3.51204756851781
  H           1.39735376013740     -2.37083801972479     -2.41793613971766
  H           2.05564863803657      0.57633838741791     -1.90256793511377
  H           3.22538741542996     -0.66572611885698     -2.37654102845436
  H           2.42898149241096     -0.74805991265631     -0.79756794681813
