29
Coordinates from ORCA-job NEB_product E -34.619514828430
  C           2.44810850237163     -0.92209442719623     -1.11923467229612
  C           1.62343657425869     -1.65823563372893     -0.07312597468264
  C           2.10663791124761      0.57440410229237     -1.07837603380530
  H           3.50591547562948     -1.04976887080722     -0.87501472184293
  C           2.27928231610739     -2.89402867020490      0.49572804716924
  C           2.14924444351748     -1.65282452926904     -2.46988877837224
  C           1.51195070687212     -0.76790396416775     -3.49852087657319
  C           0.28334990137832     -0.94036992602108     -3.94887839501686
  O           0.52753327435348     -1.29534623913049      0.27098862722338
  C           3.39834220015298     -2.34931532077772     -3.04271758720204
  H           1.42432771345247     -2.44928824955164     -2.25493260329454
  H           2.12054094393515      0.03279308187663     -3.89127937152670
  H          -0.35402326491547     -1.72552522177403     -3.57568281610679
  H          -0.14340678335019     -0.29959818466764     -4.70206656005404
  C           3.23122949751652      1.47162718208555     -1.57883729339688
  H           1.89167449557472      0.83747425551170     -0.03953998693754
  H           1.19497819344899      0.75706644385123     -1.64754669858841
  H           4.13540503986196      1.31571086428007     -0.99243742911854
  H           2.94275330200173      2.51587243045119     -1.48233816154477
  H           3.46311852296179      1.27991677410290     -2.62247326628053
  H           2.68029318083037     -3.51957948908674     -0.29725891431447
  H           1.56524909326080     -3.45936206522692      1.08894758367428
  H           3.10537022669453     -2.58642841197628      1.13503435015783
  C           4.52158042013479     -1.41913972580812     -3.48513783274987
  H           3.08124808671647     -2.94918176055300     -3.89954589252770
  H           3.78962795291721     -3.03915302385386     -2.29014862510295
  H           4.20854934290295     -0.79577958517863     -4.31813654518373
  H           5.37581754104129     -2.00871886706738     -3.81167163475691
  H           4.84636518912474     -0.77602296840405     -2.67170793694906
