20
Coordinates from ORCA-job NEB E -40.783619158550
  C           0.82934510731627     -0.77841061539997      0.44835911773200
  C          -0.38204817817203     -0.83882868685542      1.15008000910176
  Br          2.31871260287416     -0.04002879232567      1.39482154934712
  H           1.14826502785633     -1.65387398992424     -0.10490861197988
  C          -1.38723804119645     -1.91310957000743      0.81081050264756
  C           0.43142530461169      0.54533633176442     -0.89864536706566
  C          -0.01835364435729      1.59706352516226     -0.10042143649769
  C          -1.18102546163588      1.40571786698885      0.71392099438711
  O          -0.82129340057439      0.24024981021616      1.73545410974202
  C           1.68096605347070      0.71455806476998     -1.71808819013634
  H          -0.32809063922779     -0.05065788384872     -1.39594180426685
  H           0.69603799278057      2.34875166337023      0.20738790237687
  H          -2.05497541566456      1.00371052549482      0.20544460455588
  H          -1.43212649145718      2.22424104171443      1.37909393902260
  Cl         -2.22482530614562     -1.62475040726795     -0.77334104099998
  Cl         -0.60259088218525     -3.50032295239279      0.69734377908985
  Cl         -2.63614876387472     -1.96856488837929      2.06328590351078
  H           2.08186998345498     -0.24745099857511     -2.02823964716980
  H           2.44670808419517      1.25755815257761     -1.16977339664987
  H           1.43538606793129      1.27881180291782     -2.61664291674747
