20
Coordinates from ORCA-job NEB_reactant E -40.807864330220
  C           1.75786887713773      0.04542705636207     -0.12694878402545
  C           1.55998270289562      0.08017557755191     -1.44528396663514
  Br          2.37063490214314      1.42881072230485      1.00176077634952
  H           1.53952846928492     -0.84751618946334      0.43112645824450
  C           1.03850426513730     -1.15139237451266     -2.16444097405304
  C           2.43863878213812      2.48905147702400     -4.59800554483950
  C           2.81018268595636      2.90112035563117     -3.39863255697611
  C           2.51796974419305      2.19615345766184     -2.10738692483221
  O           1.75724092741069      1.02607859114423     -2.37452905814775
  C           2.74342714278965      3.20961339024947     -5.86599357514333
  H           1.87404174538257      1.57339913735199     -4.69995130632692
  H           3.37434043101924      3.81465964392704     -3.26938085573344
  H           1.95975159764329      2.87028558792952     -1.44453629890658
  H           3.46326920820799      1.92927222557281     -1.61705877459134
  Cl          2.36962175432330     -1.80652514800156     -3.16060054273147
  Cl          0.45552519493105     -2.43305824016847     -1.10439790282956
  Cl         -0.29264060340562     -0.67579721728390     -3.24256936438246
  H           3.31660605904119      2.56637145455845     -6.53273160041837
  H           3.31101107919679      4.11697014102692     -5.67590586039004
  H           1.81829503457362      3.47140035113364     -6.37823334363129
