20
Coordinates from ORCA-job NEB_product E -40.820301907260
  C           2.02216724558630      0.83137632936136     -2.37676590410924
  C           0.77405611472377      0.13675936190560     -2.84877197299126
  Br          1.68454426846418      1.00692629860108     -0.44899079539176
  H           2.90950450335509      0.20464542059141     -2.46924434366998
  C           0.90415837071282     -1.38989418095842     -3.00658721952731
  C           2.21790273477527      2.20522765805018     -3.02077931422505
  C           3.37283352886306      2.91318585010897     -2.37442361778289
  C           3.26111229878549      4.03071949028312     -1.68318773157617
  O          -0.24889937422880      0.69149073232484     -3.11946531567343
  C           2.47615557767095      2.01970780386672     -4.51794202825656
  H           1.30074070701811      2.78575292725728     -2.87961843767837
  H           4.33590865985621      2.43814038202407     -2.50928720941734
  H           2.30953697140441      4.51402726671667     -1.53534480407082
  H           4.11421746256664      4.50733719607788     -1.23294493214310
  Cl          1.85497290787188     -1.57106228532981     -4.51346157552749
  Cl          1.77088265218148     -2.16826404499610     -1.67591424737349
  Cl         -0.67981192829876     -2.13852649259644     -3.21360365059023
  H           3.35147069627052      1.39470985299187     -4.68373232677266
  H           2.65222025676404      2.98932916485884     -4.97654631930901
  H           1.62052634565736      1.55841126886089     -5.00478825391382
