18
Coordinates from ORCA-job NEB E -39.039131421140
  C           0.73230959779591     -1.54970981287614      0.25715504604476
  C           0.50008137620209     -1.15146478597613     -0.99582252547619
  C          -0.05923498663633     -1.33847232461594      1.50055353187862
  H           1.61651437298377     -2.13833523401278      0.43513477673362
  H           1.20538440173296     -1.47140283319355     -1.75444293592640
  C           0.47449011665248      2.04077382638164     -0.58522506851257
  C          -0.82842656023048      1.55489293351615     -0.25739716395963
  C          -1.40214957376690      0.31625831846636     -0.84983265104954
  O          -0.46394802086495     -0.44375267527635     -1.58795064187739
  C           1.61054024661756      1.65042965349011      0.06367297529500
  H           0.60611707960714      2.70710867891188     -1.43005793177328
  H          -1.45209903447123      2.06971152194458      0.46172576882638
  H          -2.17079172242017      0.59054321806770     -1.59100397871683
  H          -1.91345281005923     -0.28253164742450     -0.08515602276159
  F          -0.24736340056172     -0.05209422598562      1.86081332791354
  F          -1.31239539581289     -1.86132399263405      1.42768251183744
  F           0.52090339908771     -1.93632688435768      2.54400724007083
  N           2.58352091414429      1.29569626557433      0.58614374145325
