18
Coordinates from ORCA-job NEB_product E -39.143798065620
  C           2.28076851737462      1.73436827757399     -0.54583101931979
  C           1.43092533001185      0.84233339597770     -1.44495115066776
  C           2.39542283830470      1.09681050721152      0.83593862688954
  H           3.29617886893958      1.73288299222265     -0.96856887349358
  H           1.57471516921626     -0.23514479502845     -1.25435374345731
  C           1.73765500403200      3.18415740995182     -0.51955935481566
  C           0.56979381452049      3.35472025514662      0.42319901836448
  C          -0.68064083289925      3.39957070024650      0.00746847278822
  O           0.69842948082829      1.25252556446989     -2.29079238202901
  C           2.79447184115188      4.10852972541638     -0.16805969451965
  H           1.40972618657596      3.41087374590948     -1.54323161292089
  H           0.81989217883314      3.43970601277537      1.47154411853030
  H          -0.93921624326002      3.31535912851956     -1.03545143797248
  H          -1.49688284314420      3.51243933429060      0.69894031018991
  F           3.11165906583426     -0.03852986034624      0.77365937568983
  F           2.99930786336451      1.88445442945551      1.72684045885722
  F           1.20690511925544      0.75898743942187      1.35363642294838
  N           3.62568864106045      4.84065573678523      0.10887246493825
