23
Coordinates from ORCA-job NEB E -57.270678111850
  C           0.43681372258853     -0.39283250743610      0.77940650162218
  C          -0.94690132862938     -0.58212172158913      0.95037060744951
  C           1.06137069676206      0.76201047728269      1.53726340533165
  H           1.06202583227942     -1.27464948659019      0.89345495079199
  C          -1.53137955746437     -1.97183416420881      0.89453243742574
  C           0.53954543099820      0.10119957675675     -1.07930808111905
  C          -0.36223721621034      1.16572590435857     -1.13542645937381
  C          -1.72971431257786      0.94453140079498     -0.75080347896033
  O          -1.76023441007574      0.41387375543126      0.71920789877501
  C           1.97483316602430      0.34291974921564     -1.49064835547875
  H           0.19810709617507     -0.86963785070911     -1.42661953694713
  H           0.02420627039687      2.17377824496085     -1.11439001893122
  H          -2.23421546959459      0.14125018926263     -1.28698840733893
  H          -2.33814493506030      1.84101826226416     -0.69430089501315
  F           2.38184712382837      0.83542727273500      1.33168461548898
  F           0.55160234484070      1.96297937817948      1.28715577203938
  F           0.91370361287345      0.55439107981539      2.86016460598753
  Cl         -1.61664678774125     -2.56603290157539     -0.81814120629503
  Cl         -0.55410346934512     -3.13058581675211      1.80600439299634
  Cl         -3.17959058280636     -1.95519432774819      1.53437813753901
  F           2.35451766846921      1.63931490090327     -1.28424663333585
  H           2.07453577488160      0.15621810984165     -2.56751373481923
  H           2.68005932938752     -0.29174952519330     -0.94523651783485
