23
Coordinates from ORCA-job NEB_reactant E -57.299098593510
  C           1.45714220751919      0.02517839591223     -0.13772345107852
  C           1.60159910344721     -0.77351496915117     -1.20457990373330
  C           1.81003928616738      1.46208065111759      0.03874916991862
  H           1.00450664754795     -0.38774614718888      0.74900453387316
  C           1.17716555157510     -2.23371777075336     -1.10535045218207
  C           3.02500056650319      1.23834176829607     -5.20633478200652
  C           3.25987549563130      0.40636677678881     -4.20639939998574
  C           2.76973217504767      0.62298381409539     -2.80972332852445
  O           2.11718722074241     -0.58535540074041     -2.41108605254888
  C           3.52956659014773      1.04801176082866     -6.59942350634032
  H           2.44899669639215      2.14266676572763     -5.06702786987529
  H           3.83072409222593     -0.49728141059582     -4.36151781404176
  H           2.07445322078496      1.46574856029942     -2.77424570831629
  H           3.62134895226945      0.81368066078676     -2.14598018461337
  F           3.12729982012290      1.73200400047020     -0.07423545875622
  F           1.19483786249132      2.29148802501903     -0.83064710323512
  F           1.45397685423545      1.87959253217234      1.25765972410105
  Cl          2.65826829230295     -3.18167947733732     -0.79781866204606
  Cl          0.01904493077079     -2.56119505039786      0.18195445177074
  Cl          0.46432038953056     -2.76226913267278     -2.64061158342720
  F           4.27717997405825     -0.09199747765086     -6.72789294199950
  H           4.17185579378845      1.88583941858364     -6.89929137008984
  H           2.69467827669773      0.96357370639069     -7.30667830686310
