19
Coordinates from ORCA-job NEB E -41.641168629700
  C          -0.01591680713913      1.04168603064292      0.40099747211540
  C          -0.81794310870084      0.26582860042541      1.35887300150089
  C          -0.81785524633244      2.02618340054103     -0.27926589754530
  H           0.84141496400260      1.52880356925616      0.87401787127688
  C          -0.30578538461880      0.04203538710152      2.65416524378362
  C           0.49386894087798      0.00021627081947     -0.81971302378536
  C          -0.32937846943844     -1.20487910500256     -0.83088359720348
  C          -1.71071776319211     -0.97077813580393     -0.61595298748268
  O          -1.78997478548667     -0.44473863159056      0.91417898254006
  C           1.98095183380914     -0.28034691832830     -0.70328053140569
  H           0.33002084279336      0.60323535753603     -1.72232178665362
  H           0.09169080084114     -2.09906715302098     -0.38723123691433
  H          -2.35792059745067     -1.83779008005234     -0.56974273146575
  H          -2.15547942381758     -0.14542031434429     -1.16991114032381
  N          -1.46876591684862      2.78855670867532     -0.82613102435330
  N           0.03891252380793     -0.07799110768554      3.74407843096795
  Br          2.54101646130158     -1.42614144960824     -2.18920142576146
  Br          3.03075572504442      1.37368379202373     -0.81551560376136
  Br          2.42110541054713     -1.18307622158487      0.98283998447134
