21
Coordinates from ORCA-job R E -44.140619415350
  C          -1.34314355918181     -0.13384254552034     -2.78482385771381
  C           0.34989364289446     -2.56705781435467     -2.23503895361371
  C          -0.98033955379307     -2.53129650660199     -2.25687406638864
  C          -1.79343625459912     -1.35209132589889     -2.47876652967870
  C          -0.32437477266850      2.33077701455021      0.39255012775645
  C          -0.39866216213621      1.08696902940882      0.83609889796001
  H          -1.54039295454383     -3.44308384895230     -2.09366709662366
  H          -2.86221429691564     -1.49752994365279     -2.37697736271433
  C          -2.24556993723004      1.03483654124240     -2.97764236661735
  H           0.86923767775886     -3.49210207521737     -2.05243125449400
  H          -0.29747894342612      0.10347342091690     -2.90208038541598
  H           0.96143540479621     -1.69051988299882     -2.36701383268936
  H          -0.84877827472225      3.13795051829707      0.87111365457180
  H          -0.95821506063455      0.76291897642667      1.70132283071853
  H           0.26453685602080      2.56635250850708     -0.47949495318867
  N           0.28971711990469      0.01376222228565      0.17629917424371
  F          -2.08452593484802      1.62124485073839     -4.17836833088697
  F          -3.54892756647471      0.74585948070780     -2.86695983895959
  F          -2.00250416330979      2.01255293605369     -2.06719093221963
  O           0.11943086145106     -1.10069271048652      0.62453797692848
  O           0.98953187165761      0.26971915454900     -0.78035290097459
