21
Coordinates from ORCA-job TS E -44.129595199400
  C          -0.48617815574314      0.42144204172150     -1.07760102871260
  C           0.87476572110094     -1.89864827183966     -0.00979400966788
  C          -0.43342972475142     -1.90231777838178     -0.33278020215028
  C          -1.09396745875027     -0.78801646070033     -0.91062513356360
  C          -0.17206368482827      0.98370605635657      1.02338591605378
  C           0.59061742330187      0.03830758459314      1.62844747669161
  H          -1.05683877716395     -2.73046145156032     -0.02685767279425
  H          -2.16699809239141     -0.85064429172768     -1.03211634633071
  C          -1.28544373749715      1.56560037465535     -1.62644559682916
  H           1.31228925074977     -2.71179324757037      0.54482202866488
  H           0.57871150707063      0.52769231306642     -1.21910251280821
  H           1.56698560218298     -1.19803899567254     -0.44157578164092
  H          -1.22363016331557      1.04640688102139      1.24195039910251
  H           0.21673390203500     -0.72904979101657      2.28495781221871
  H           0.31499648597230      1.87482064753655      0.65760910440350
  N           2.00813796346990      0.14038866827646      1.59313192927716
  F          -1.51424627214281      1.43693802459435     -2.94622009316082
  F          -2.49364749664051      1.67362235696779     -1.04639820015692
  F          -0.67571858041641      2.74614290703614     -1.46113530603792
  O           2.63368926345824     -0.53085252659092      2.38785480755173
  O           2.50523502429929      0.88475495923450      0.76849240988940
