18
Coordinates from ORCA-job NEB E -43.340812871760
  C           0.67018644761809     -0.96478382059055     -0.19910500211210
  C          -0.26985417278267     -1.02883267058599     -1.22981676886611
  C           0.27523696487983     -1.49563229909483      1.15602984062467
  H           1.69407333163053     -1.23151119915653     -0.44287390172338
  F           0.27217483348282     -1.05123750871722     -2.48774636244378
  C           0.65766010166162      1.04885567963397     -0.00330811729829
  C          -0.70359052940261      1.34260479910478      0.11991478688337
  C          -1.55164013094225      1.06797392732485     -0.97317060567885
  O          -1.45457230486081     -0.63315601250925     -1.14225571973647
  C           1.52778819098534      1.32339406798773      1.08975562108509
  H           1.13644158296009      1.20661887918788     -0.96736941736062
  H          -1.13116439362549      1.42293811343417      1.10824198463903
  H          -1.20833608543640      1.33319017052221     -1.96796525678929
  H          -2.61484123830281      1.19834214833690     -0.82813726063546
  F           1.23960861927023     -1.31756703862951      2.06306837713416
  F          -0.84105020379001     -0.96955597698473      1.66400495107161
  F           0.06826790180251     -2.82346749582232      1.08659983529052
  N           2.23361108485200      1.57182623655842      1.95413301591589
