18
Coordinates from ORCA-job NEB_product E -43.384898855760
  C           2.32400755312096      1.90236934559813      0.25166968136782
  C           1.34036567476985      1.62480267718800     -0.86924272225651
  C           2.51067374543401      0.64964815861545      1.12077679103291
  H           3.30195298502238      2.10151764171771     -0.21087953252807
  F           1.64573321933988      0.48052062821845     -1.50981613515239
  C           1.85911160907817      3.13746221707417      1.06428187993388
  C           0.75320917883382      2.81120346825679      2.04294159229333
  C          -0.51230422513227      3.09971418183419      1.81187746284492
  O           0.43140359176572      2.28375090327338     -1.21912326481790
  C           2.98290782485197      3.72285053617965      1.76795674392949
  H           1.49087035412680      3.87843637393801      0.34276096433570
  H           1.06342801014218      2.32628243302441      2.95771884784905
  H          -0.83367441623357      3.58333499613778      0.90419865578698
  H          -1.27981013275355      2.84973255587485      2.52285047890255
  F           3.25796375838014     -0.26903419243702      0.50360321133890
  F           3.12426194585380      0.92860832007619      2.27330525235937
  F           1.34750020514642      0.06515968208526      1.43012614392525
  N           3.86199911825330      4.19314007334461      2.32329394885470
