14
Coordinates from ORCA-job NEB E -26.106546233560
  C          -0.01998210644240      0.96385715149212     -1.09038248893832
  C          -0.94946894768124     -0.05555645266847     -1.11436005394626
  Cl          0.90324729069635     -1.59692434740262     -2.12049583372984
  H           0.16688721393375      1.53428709678612     -1.98281214702010
  H          -1.50811920199493     -0.31086260461124     -2.00403240655018
  C           0.80429354346472      1.07048068444066      0.03149435410875
  C           0.57052294522476      0.20107245462490      1.08963374707784
  C          -0.82806888933845     -0.32911192134489      1.20593502942173
  O          -1.35352567527238     -0.72850463300348     -0.05778813731832
  I           1.80337688146841     -2.01806171632276      0.54016908253031
  H           1.68202076379807      1.69586009477582      0.01171607232548
  H           1.10529955227678      0.32019475577322      2.01881297078843
  H          -1.48727508927963      0.45728700478111      1.61536506933285
  H          -0.88920828085380     -1.20401756732048      1.85674474191763
