21
Coordinates from ORCA-job NEB E -45.453550233940
  C           0.56031750407754      0.46989117829917     -0.60316406576121
  C           1.59763477576696      0.13094162791776      0.24314181462428
  C           0.63314296126557      1.38830565559458     -1.74428301226973
  H          -0.40628478394621     -0.00271906930721     -0.47196938765085
  C           2.96957125345590      0.79044466366437      0.14610142753364
  C          -1.31729599111420     -1.37276722371801      1.13444909201039
  C          -2.66539569788328     -1.48593855159190      0.70639761218326
  C          -3.45386464090271     -0.39914113380969      0.65886452701684
  O           1.48857511097018     -0.73737364067309      1.16075501524760
  O          -0.43531475396759     -2.26189597682521      0.96005027861075
  H          -1.02351538410517     -0.41910147669695      1.58153157332903
  H          -3.01124811307257     -2.45115976125199      0.35613515663349
  H          -3.09914115894911      0.56669339713173      0.97950834597351
  H          -4.46055248767620     -0.44651693228695      0.28144426845620
  Cl          1.93729131758149      0.96566580461060     -2.92428846950469
  Cl         -0.89771391185174      1.35423338323826     -2.64193015969093
  Cl          0.92383892419418      3.10845818136880     -1.26548117879598
  F           3.89118159210565     -0.14490164406885     -0.26123831204587
  H           3.27796729904975      1.12629441728093      1.14160193889573
  H           3.01390683214915      1.61486004748947     -0.56555085908364
  H           0.47689935285239     -1.79427294636583      1.12792439428819
