21
Coordinates from ORCA-job NEB_product E -45.523250166800
  C           1.23102883490731     -1.28019449711684      1.13130715628013
  C           2.57740529920609     -1.25626666743799      1.88374365255365
  C           1.33167941230430     -1.13228256972826     -0.38032855465811
  H           0.67864634266783     -0.40488126529963      1.49390548531555
  C           3.68162948533059     -2.12965725979473      1.33639570783733
  C           0.44594846150205     -2.52614466928698      1.64026040882869
  C          -0.92726998790475     -2.61876296111868      1.03325254238628
  C          -2.01272363483476     -2.13145975997071      1.60339706433257
  O           2.67663902599764     -0.62056145325823      2.89327803591938
  O           1.20446138761595     -3.68876738872304      1.39150636540014
  H           0.34854812356061     -2.37786730711558      2.72957770651575
  H          -0.97345487597775     -3.14844515805865      0.09193210296152
  H          -1.97263072742147     -1.60750914921241      2.54412413875978
  H          -2.98144606345260     -2.22556221214818      1.14575924782554
  Cl          1.82604473049992     -2.59807914716425     -1.23062551857038
  Cl         -0.23393849759248     -0.60575004977446     -1.05724691073059
  Cl          2.50875444031428      0.16834909778699     -0.75655116774360
  F           4.76889576512836     -2.09928610102615      2.16190828213488
  H           4.01291696977227     -1.78615100947892      0.35151229239254
  H           3.32944851109604     -3.16547807126412      1.27562256784200
  H           0.63811699728058     -4.45914240080917      1.51006939441693
