21
Coordinates from ORCA-job NEB_reactant E -45.531635633630
  C           1.31722588034632     -0.57561219206562     -0.13282963150121
  C           1.93958045820298     -1.60871806685858      0.45544823025835
  C           1.95771171881243      0.45165634476250     -0.98604610551726
  H           0.25258768207932     -0.45073311606966     -0.02030970342600
  C           3.42549957284899     -1.87807321532970      0.38769504691542
  C          -0.84143517192391     -3.48352736912778      3.58509360990154
  C          -0.43264748650175     -3.61828019652561      2.32987050677043
  C          -0.06105797616343     -2.46224718072021      1.46027248915313
  O           1.33980534241010     -2.54404396765050      1.20323941972560
  O          -1.18408640201293     -4.48245881241724      4.41758450346400
  H          -0.96161370789769     -2.51893904893904      4.05759852661020
  H          -0.31150528400911     -4.59788040977671      1.88903681713329
  H          -0.29106503935408     -1.51498409584663      1.96094187949875
  H          -0.60140654134565     -2.50844246638600      0.50463278734638
  Cl          2.61501141916881     -0.27405914665877     -2.50031090299321
  Cl          0.75618566709912      1.66466507989252     -1.47425563904250
  Cl          3.29711440896217      1.30778813650671     -0.17260125703509
  F           4.06458050732290     -1.24904862356986      1.42724681799681
  H           3.87105517558829     -1.50987111212717     -0.53844421972542
  H           3.60309229270745     -2.95061492480982      0.51305098357720
  H          -1.05393251634032     -5.33777561628283      3.98708584088959
