20
Coordinates from ORCA-job NEB E -37.742756741450
  C           0.56578651692568      0.47467655279858      0.72729195871506
  C          -0.71082085964792     -0.08336861703949      0.82195779423482
  C           0.66658976260098      1.95433269725268      0.44289628477048
  H           1.28594723413216      0.14624162985337      1.46987181268650
  C          -0.86700437268079     -1.34814761680056      1.65351177050897
  C           1.19388206003330     -0.31044286325571     -0.98233969237153
  C           0.08397997853698     -0.88147068022733     -1.58878645363500
  C          -1.09318092043906     -0.08641770116352     -1.67115049232358
  O          -1.59334492986604      0.09030202313677     -0.11879720344830
  H           2.00136098421866     -0.97174003528149     -0.70038504297868
  H           1.52844277027461      0.64870160916751     -1.34655025039406
  H          -0.05807281582598     -1.95051612675556     -1.48969345110043
  H          -1.97366681911764     -0.53563251099297     -2.11430426869413
  H          -0.95601973900957      0.94659931167272     -1.97896912447524
  F           1.94575549158422      2.32324153622949      0.11332577377832
  H           0.41240954443838      2.51110966242036      1.35347077013206
  H           0.01355089181950      2.27297952113041     -0.37424040512912
  F          -0.06769413574198     -2.35323200908848      1.19154889201588
  F          -0.47529416637809     -1.13176252389780      2.93234116645132
  H          -1.90260647585740     -1.71545385915899      1.65900016125664
