19
Coordinates from ORCA-job TS E -33.011233023020
  C          -0.38768571352853      0.34073248326486     -0.92777430421556
  C           0.97044345204817     -1.85007247990173      0.30981014846399
  C          -0.37107114466201     -1.84653263502167      0.12724159764711
  C          -1.04169703769973     -0.78582966792254     -0.51876430639371
  C           0.31623656517940      1.06298717343721      1.04461169482797
  C           1.14797143386058      0.14695040573545      1.59694197208123
  H          -0.98221210239361     -2.57851717810141      0.63695108614189
  H          -2.12283350034790     -0.77838712788767     -0.48379742144581
  C          -1.16246755490728      1.47774099340720     -1.52320966192347
  H           1.44035403609198     -2.60235100938669      0.92200948289414
  H           0.64436782944246      0.31033916969282     -1.24120024843607
  H           1.62869650744275     -1.31397211097922     -0.34843096580716
  H          -0.69481858566140      1.13166026489667      1.40813950581058
  H           0.86591016686312     -0.52457959130171      2.38779680351692
  H           0.71270525528996      1.93070853721577      0.54654139486133
  Br          3.03547866760799      0.33387158153426      1.42102468229528
  F          -0.46930242242052      2.64149600247746     -1.45878385562689
  F          -1.38703280336044      1.25974889402802     -2.84962596573620
  H          -2.14304304884498      1.64400629481291     -1.04948163895557
