24
Coordinates from ORCA-job NEB E -43.665672972300
  C           0.65718618120541     -0.74929333673186     -0.54915801785551
  C           0.66168429086783      0.62660719385250     -0.81155392300490
  O           1.64367876025522     -1.32161012080368      0.17140334638103
  H           0.13298498394994     -1.38018867867657     -1.26132944980921
  O          -0.17805684127051      0.97515673417328     -1.82760111587650
  C          -0.81418373535030     -0.47389305119772      1.09542376109924
  C          -0.92795235176942      0.88639562952833      1.32159833263188
  C           0.24631234833758      1.61118911440052      1.55298094291620
  O           1.10818441464121      1.50391933610308     -0.01658032366598
  N          -1.92400775102146     -1.21606185936554      0.59773871503829
  H          -0.12196998695717     -1.07226876852621      1.67041312489432
  H          -1.80494786427901      1.38534250189974      0.93033307376060
  H           1.03334205965440      1.13827507620643      2.12346048061582
  H           0.19227864033009      2.68377337975128      1.66067596724976
  C           1.62430664238913     -2.73884170635037      0.20030808918167
  H           0.66962615173786     -3.11883840727067      0.57462973413483
  H           2.42933702305573     -3.03875663153261      0.86759387724678
  H           1.80393393675183     -3.14820859253049     -0.79776848257913
  C          -0.38784720468630      2.36362052893256     -2.02297469156924
  H           0.56659151456308      2.89128009453828     -2.08662070625448
  H          -0.97799860702522      2.79028019636439     -1.20951094090691
  H          -0.93238155041149      2.44953858357415     -2.95977505464485
  O          -2.87904131840086     -0.61668769279682      0.15360099385966
  O          -1.82105973656759     -2.43072952354204      0.62271226715664
