24
Coordinates from ORCA-job NEB_product E -43.724306507200
  C           0.97531170539517     -0.39061101506991      1.60410250127833
  C           1.69730830379180      0.75917423135712      0.88682841894221
  O           1.77475170085517     -1.53429490219575      1.73795046603337
  H           0.04083792574554     -0.61194999663006      1.06162153806988
  O           0.80842481171805      1.52766492229480      0.25872325403130
  C           0.64167885219471      0.08213472035556      3.02693147806727
  C          -0.10856439067320      1.37969835523617      3.04373412413167
  C           0.31261105735788      2.45567523223581      3.68073927731821
  O           2.88124846314587      0.94381429025695      0.90857240954822
  N          -0.23978629288648     -0.94697568291514      3.66409346778308
  H           1.55919472919167      0.12795412814400      3.61999784044278
  H          -1.04089144744833      1.37132627798994      2.49572061275014
  H           1.23999432964098      2.46641441722329      4.22875302339191
  H          -0.25329332762564      3.37075694266293      3.67417433422747
  C           2.05090691243948     -2.19341125846909      0.52275164148155
  H           1.12307335953964     -2.48476614040196      0.01675278634283
  H           2.61695446701509     -3.08257858258064      0.78940299263620
  H           2.64885116273459     -1.56724168953195     -0.14596960283136
  C           1.28719513565983      2.69333513133868     -0.40806444930822
  H           2.37438585136628      2.74403156646822     -0.33302998602971
  H           0.83519378616273      3.56476471219589      0.06493484895003
  H           0.98125812052670      2.63503604794987     -1.45188798164719
  O          -1.18295350675004     -1.33249166847221      3.02307995769539
  O           0.03710829090254     -1.27646003944253      4.78538704669465
