22
Coordinates from ORCA-job P E -38.483690724390
  C          -1.35223405779904      0.34349676436615     -2.48456072010562
  C           0.00889581580240     -1.60282503046665     -1.09918196059289
  C          -1.26941967886850     -1.97465599548135     -1.77880650498547
  C          -1.93180270286801     -1.04139085194880     -2.44458619236877
  C          -0.95970845313959      0.78103110433794     -1.05305002088077
  C          -0.17743027527899     -0.30251131503756     -0.28347243091895
  H          -1.61868789570515     -2.99186358378015     -1.71013080317208
  H          -2.84979671860049     -1.24636292653728     -2.97473277268449
  C          -2.30142189049726      1.38742707083977     -3.06090021258546
  H           0.35274762791834     -2.39588505723192     -0.43636022621186
  H          -0.45768422282877      0.34329283235673     -3.12015796778268
  H           0.78131699321215     -1.45015577278589     -1.86195835705490
  H          -1.87150814289260      1.01097543340584     -0.49698739467279
  H          -0.71793182963928     -0.56125694792056      0.63044408255380
  H          -0.39014047127473      1.71216295205686     -1.11109967525444
  C           1.20409246578604      0.17505584480366      0.15510293454225
  O          -1.95617686659225      2.22637387560359     -3.83988072111923
  O          -3.55982935978292      1.32708168192034     -2.60438704963771
  H          -3.69516341895495      0.58570790086860     -1.99676874908022
  O           1.61236757711915      0.05665568081933      1.27219951895161
  O           1.96227628041865      0.71339640706106     -0.81057729370168
  H           1.50633922446580      0.76000993275029     -1.66242748323763
