22
Coordinates from ORCA-job R E -38.404176291090
  C          -1.20368437390699     -0.36985030653387     -2.71437755922290
  C          -0.00646773986836     -2.99035727459924     -1.84642428837649
  C          -1.25138471458588     -2.79855043374460     -2.27547621248677
  C          -1.87290229654930     -1.50486458718823     -2.46936183597679
  C          -0.73294101961449      2.36780830824270      0.40316992794323
  C          -0.29901973642761      1.11800040539996      0.47482880367125
  H          -1.89108240331553     -3.64991140647937     -2.47251946551492
  H          -2.95650800087706     -1.50340012729614     -2.39038829730233
  C          -1.81097783834569      0.96554362180453     -2.81010000398954
  H           0.38912422863600     -3.98297799562912     -1.71681785267571
  H          -0.12609811412963     -0.38089716903318     -2.77934014408036
  H           0.64599349429021     -2.17955327184521     -1.56979228066452
  H          -1.53748071043009      2.71988319885931      1.02700042755011
  H          -0.71242704712044      0.41330963365443      1.18254485032672
  H          -0.30719510634298      3.09577150303350     -0.26842417198520
  C           0.84272017642985      0.57496449017017     -0.30693962888800
  O          -1.19207954188217      1.97564867795544     -2.55602252638769
  O          -3.09703233107491      1.04598991229427     -3.17361592007950
  H          -3.47428019087937      0.18148543574839     -3.38467323758603
  O           1.44369072690601     -0.40874324072703      0.04940712407609
  O           1.18299916604732      1.21781400658337     -1.42573072623888
  H           0.46813337304110      1.80867661932993     -1.74773698211175
