26
Coordinates from ORCA-job NEB E -54.798109211130
  C           0.08899657977007      0.26013789412030      0.94357541029918
  C          -1.27806312318795      0.02903212966857      1.18491501348831
  C           0.57758909385013      1.65908341164574      1.22464358800439
  H           0.78704479910372     -0.46025555972238      1.36212198800943
  C          -1.71627836980761     -1.30035032528837      1.73875824786195
  C           0.27508727535579      0.18454212240187     -1.03880458104335
  C          -1.04047938104269      0.03447437513665     -1.49129753776706
  C          -2.01572984258704      0.96436233453247     -1.05533406708781
  O          -2.18402401850244      0.71071389363197      0.58659193730927
  C           1.29265375951679     -0.87284599328409     -1.38881055589359
  H           0.67055123279983      1.19360819754925     -1.09938620371500
  H          -1.37107730004016     -0.95562428715887     -1.77832236040108
  H          -3.03784171416338      0.80617977814332     -1.37724768363051
  H          -1.73062361115350      2.01094100737302     -1.04064284522468
  F           1.85409724784426      1.84392290579347      0.86263760875645
  F          -0.12680425218595      2.63172242255686      0.63846695100231
  F           0.53015888533372      1.90407932616096      2.54652351418473
  Br         -0.81858639788713     -1.69942232925509      3.41687029913135
  Br         -3.62753677415302     -1.29326635261762      2.00449199694889
  Br         -1.29764987188243     -2.78171701771619      0.47888956537655
  C           2.70208109287596     -0.57573266968542     -0.89210242426214
  H           1.31599570889868     -0.92690781283938     -2.48110161332299
  H           0.96537347113638     -1.84944547448645     -1.02940899190298
  H           3.03859363273355      0.39649947865125     -1.24314795571816
  H           3.38768973744744     -1.33156781233659     -1.26562970890000
  H           2.75878213992700     -0.58216364297528      0.19275040849652
