26
Coordinates from ORCA-job NEB_product E -54.835487138610
  C           2.79723424534535     -1.01104807396239     -1.97552933249963
  C           1.54806363927324     -1.85140453563640     -1.83441055819693
  C           2.52022473432782      0.28341639318440     -1.20238441305832
  H           3.65547159901149     -1.47756104789789     -1.48294196276076
  C           1.62883992277225     -3.10230438885250     -0.95249638415602
  C           3.19501740574248     -0.66842257440096     -3.43949494859609
  C           2.09996495268220      0.03098897831236     -4.19311514327854
  C           2.20428336863938      1.26867634705073     -4.63806718855793
  O           0.50497163715188     -1.60330158864140     -2.36194093557889
  C           3.64268404200397     -1.91548056737429     -4.21529417187660
  H           4.05350526079572      0.00923061873606     -3.36086324226254
  H           1.20981699335992     -0.55001114928949     -4.38369660557124
  H           1.41258380565740      1.73639098516574     -5.19570166396906
  H           3.08282959023147      1.86748351515503     -4.45908724870426
  F           3.56664614092503      1.11332001562592     -1.24811316429282
  F           1.46075859833589      0.95982617315299     -1.63582359985724
  F           2.29669658735918      0.02581373136957      0.09860088707065
  Br          2.86529703412711     -3.03127053885781      0.53468680199174
  Br         -0.14465036913974     -3.52250865594021     -0.29851455044703
  Br          2.20199585180194     -4.52780706008829     -2.16775591742214
  C           4.92433786140134     -2.54403194559036     -3.68141056929864
  H           3.81254392596299     -1.60154231176420     -5.24699807071181
  H           2.83880328873058     -2.65326276807510     -4.23269722151513
  H           5.72110888438278     -1.80513042004314     -3.63698680800877
  H           5.23850795134961     -3.34719824329428     -4.34197719881220
  H           4.79356304776870     -2.97086088804408     -2.69028678962978
