17
Coordinates from ORCA-job NEB_reactant E -25.257651857910
  C           2.35763278111778     -1.08473363093272     -0.13398442709509
  C           1.32119689831441     -1.57506850919320     -0.78821165206786
  H           3.17035888479407     -0.59816263447343     -0.64404557070537
  H           2.43103163070970     -1.16932025666807      0.93271272892675
  I          -0.25168121568202     -2.57642773303594      0.21672992312593
  C           3.45882908409674     -2.88337554833414     -2.85891969053832
  C           3.21951071001978     -1.62914809274255     -3.20165428653014
  C           1.92382419705731     -0.90303897285657     -2.97470520216626
  O           1.02808080947315     -1.55978490203066     -2.09669531700917
  C           4.74619373171554     -3.59382199325309     -3.09708268955050
  H           2.69135305297640     -3.46630852374866     -2.36649998287914
  H           3.97242317053276     -1.03651227291049     -3.70375245740032
  H           1.37201001432751     -0.82629730314481     -3.91888546071381
  H           2.12169115216341      0.11571744991805     -2.61200290753533
  H           5.17491924745768     -3.91855179408517     -2.14931140084606
  H           5.46043811894555     -2.95195357279113     -3.60678846501716
  H           4.57468773198020     -4.48371170971742     -3.70150314199815
