19
Coordinates from ORCA-job NEB E -29.398222691980
  C          -0.09389381822469      0.76758340935129      0.77833656986571
  C           0.03871765528925     -0.60289222216550      1.02254175398410
  C           1.14292444072290      1.62034026723000      0.65418733059572
  H          -0.90793809721456      1.25955077265675      1.30044504497764
  N          -0.94282438120365     -1.28566613652501      1.69090383818229
  C          -0.72622795530590      0.62443918562514     -1.14740983024519
  C          -0.52086676200438     -0.68040022737341     -1.58208656153482
  C           0.75983849304641     -1.22647167338304     -1.27544083110061
  O           0.88852252627704     -1.32848418851877      0.35545618969124
  Cl         -2.36159107100055      1.22391907598687     -1.15006187024545
  H          -0.03660877377140      1.39581209053443     -1.46173708552039
  H          -1.36452611208692     -1.35858887695787     -1.55912692140255
  H           1.61015185467605     -0.59286284760675     -1.51125478785147
  H           0.92758186573295     -2.25790066466150     -1.56172941013067
  H           1.52586030945205      1.84279175051968      1.65090503438580
  H           0.92194117170335      2.56689227817909      0.16562205439782
  H           1.92268697473048      1.10106635642435      0.10392909529035
  H          -1.76026585938427     -0.79515927944554      2.00813202375857
  H          -1.02348246143418     -2.27396906987022      1.51838836290191
