19
Coordinates from ORCA-job NEB_product E -29.463566345650
  C           1.66028861739892      0.13100360448758     -1.66614485026523
  C           0.99173086945356     -0.94186499158808     -0.80076282540358
  C           1.33416829188848      1.51925842808203     -1.12444123818641
  H           2.74434210536261     -0.02081603230703     -1.66335417868586
  N           1.69277378746542     -2.09653241455189     -0.71617723612378
  C           1.15528422850628     -0.09128222508318     -3.10013001946358
  C          -0.29928309910555      0.17659983137581     -3.27512254871977
  C          -1.16125991151175     -0.73911083989149     -3.67577511086852
  O          -0.08077454630707     -0.79674365360742     -0.26600896318926
  Cl          2.07191340106440      0.99013989003453     -4.22032437988261
  H           1.39685087158984     -1.10835543119487     -3.42385539610408
  H          -0.61886426717415      1.18599850026025     -3.06600673296832
  H          -0.85936575146250     -1.75045017430001     -3.89510619300123
  H          -2.20786972385202     -0.51806251807059     -3.78838725731045
  H           0.27625663006097      1.58103252789580     -0.88364382893806
  H           1.59073334194918      2.28301723904554     -1.85371886586796
  H           1.90025656451010      1.70154430772085     -0.21410912718865
  H           1.31249259339725     -2.85337989780005     -0.17177587081589
  H           2.59902599676604     -2.21289615050776     -1.13215537701677
