17
Coordinates from ORCA-job NEB E -41.072684125660
  C          -0.01496641939936     -1.50970648423544      0.23660652795482
  C          -1.35548411290886     -1.41009581019466     -0.15163652272122
  F           0.24690633105532     -1.46521055803256      1.55178108607364
  H           0.63243045186885     -2.21809014099164     -0.27416953394820
  F          -1.56806818717928     -1.78659732038581     -1.45508465791445
  C           0.54182692052344      0.32225389273539     -0.31123355256455
  C          -0.40010509568996      1.10688360682968      0.35544892674573
  C          -1.75938356464754      0.99805734824938     -0.02606663584043
  O          -2.16470721676505     -0.58104112733462      0.33796557082649
  C           1.99675319775842      0.49299578169435      0.00767983072256
  H           0.39376064559228      0.15860501084792     -1.37839324166409
  H          -0.17219233909931      1.46736169051803      1.34867232582573
  H          -1.98067476241200      0.99642027872341     -1.08914538112008
  H          -2.48179605202316      1.54407248854925      0.56483421937102
  Br          2.58797388030350      2.16911101402887     -0.87311301132418
  Br          2.40282713191471      0.65390132143757      1.89710362794681
  Br          3.09489919110800     -0.93892099243914     -0.74124957836962
