17
Coordinates from ORCA-job NEB_reactant E -41.102077233780
  C           2.29983627745873      0.41381750337688      0.36156356091805
  C           1.49701189248065      0.98656119330848     -0.52907574827406
  F           2.95710257705213      1.09841594640458      1.32149478885932
  H           2.48584820853159     -0.64555724634938      0.38072750126112
  F           0.90209760013139      0.17679178514358     -1.41457483256254
  C           4.15045767739896      3.68678014795829      0.42368580479068
  C           3.17213230038106      3.46847200237302     -0.43960361364399
  C           1.74017194242699      3.29372094529905     -0.03555129371007
  O           1.11100572245456      2.24781500716379     -0.75794153545606
  C           5.57900155636206      3.87384706803186      0.09489094521382
  H           3.94823251834626      3.73713508152823      1.48690959872991
  H           3.35249051478869      3.39669403625911     -1.50419994100731
  H           1.17193106286947      4.18657277180978     -0.31744482417233
  H           1.64713661025713      3.13845682138910      1.04429062030706
  Br          6.17250314223040      5.63260437119063      0.76701793178109
  Br          6.64040611179806      2.48741808793543      1.00803308552462
  Br          5.99833428503186      3.79385447717758     -1.79702204855930
