17
Coordinates from ORCA-job NEB_product E -41.119163228350
  C           3.24396737937473      1.36259479755139     -0.70416234630804
  C           1.75364191122651      1.11455090552052     -0.81210102905226
  F           3.77254672247333      0.45161955373401      0.16390005208405
  H           3.70857945799843      1.19023356303564     -1.68720913033644
  F           1.24251575509138      1.92028959285219     -1.78475902373202
  C           3.47557499915552      2.80813335112327     -0.21517590352476
  C           2.89989178705817      2.97380818352226      1.16770838678642
  C           2.05846171509108      3.93754319383175      1.48918222422010
  O           1.06124555725185      0.38854727000535     -0.20764397522465
  C           4.94854600809614      3.21568460422823     -0.22966903376686
  H           2.95612860293519      3.47368115283039     -0.91813597563997
  H           3.22416063532350      2.24050561388517      1.89299636782835
  H           1.72695076058296      4.67416969960673      0.77523818532765
  H           1.66938192613302      4.02740569971723      2.48754906471425
  Br          5.07113594111205      5.11578069408178      0.22259889865361
  Br          6.04657875694443      2.23157975447674      1.03492873876526
  Br          5.72379208415171      3.00337236999735     -2.02094550079469
