23
Coordinates from ORCA-job NEB E -32.581241521370
  C           0.39384055791626     -0.68734630179936      0.65968921225219
  C          -0.99982254886157     -0.57035674804325      0.76565227300374
  N           1.23016783116054     -0.15796699142582      1.66172210314621
  H           0.82549611334288     -1.54416020959701      0.15876145156875
  O          -1.86495975782165     -1.22221675414887     -0.09047923077932
  C           0.53323610859921      0.81051343883151     -0.74459356440365
  C          -0.00785670098693      1.87587653820407     -0.03672281072506
  C          -1.37288598272185      1.83923114911846      0.30666458772419
  O          -1.49581074500270      0.45751427008192      1.34156971493495
  C           1.99568432677042      0.78919152978881     -1.08290733310414
  H          -0.10781750778730      0.33884034755376     -1.48279427581538
  H           0.65928223291767      2.47434483713629      0.56726256352338
  H          -2.07610140652622      1.50261321643203     -0.44635657754354
  H          -1.76243995979896      2.61367901452572      0.95161285152033
  H           1.70282889950523     -0.86817008049764      2.20436788815782
  H           0.70787767065160      0.46943458914896      2.26280844538168
  C          -1.43115163615975     -2.39078654753677     -0.73706591753207
  H          -2.31960761258362     -2.82368632237584     -1.19507953382579
  H          -1.00387344011114     -3.10780672888489     -0.02866121689227
  H          -0.69532124529537     -2.17398590419495     -1.51846933132694
  H           2.29527172024641     -0.17668207406318     -1.48207864191556
  H           2.58785277283740      1.00474944769256     -0.19767106960836
  H           2.20611030970944      1.54717628405347     -1.83723158774119
