23
Coordinates from ORCA-job NEB_reactant E -32.608255295050
  C           1.99658968357265      0.07691514730738      0.13040434580723
  C           1.98319003342620      0.27604342537400     -1.18920839743249
  N           1.63419601824810      1.04663440279874      1.06607102342558
  H           2.38820737873278     -0.84637610703491      0.52416564250512
  O           2.54414545503237     -0.65568363783124     -2.03732376920073
  C           3.30621460881807      2.56750748705445     -4.36960124507610
  C           3.34288268580070      2.06655334273505     -3.14569659860690
  C           2.39032578704865      2.44887030361662     -2.05519645674315
  O           1.44491708622519      1.41271622123722     -1.75109368723061
  C           4.23185850037840      2.17740699039627     -5.47196118366597
  H           2.57331190753910      3.32477564237621     -4.62106904129724
  H           4.06163028764227      1.30063502733244     -2.88617003575117
  H           1.77236993282627      3.29822418202880     -2.35792583141449
  H           2.94458601720430      2.70299200667098     -1.14098770497170
  H           1.18695704146333      0.66837803342410      1.88875426154831
  H           1.08654403029395      1.78840486111251      0.64841307515616
  C           1.78315724213981     -0.94771115759612     -3.19335583549705
  H           2.38837682139669     -1.63050503644009     -3.78608980239656
  H           1.57570168860702     -0.04234571619479     -3.77067659511862
  H           0.83628516279394     -1.42841325518252     -2.92574000976867
  H           3.66438808280624      1.80547393629345     -6.32482648889680
  H           4.92379381575663      1.40554926659314     -5.14511995338331
  H           4.80147073224733      3.04335463392832     -5.80886571199084
