15
Coordinates from ORCA-job NEB E -30.351259579860
  C           1.12267018526563      0.68160400302505     -0.41748761487511
  C           0.58310408245297      1.15013395027175      0.78630860521950
  O           0.64482193956091      1.21243870944509     -1.57013227114780
  H           2.18029524909359      0.41922301778687     -0.40203977602666
  F           1.35478495394395      0.80460185110715      1.88438006074245
  C           0.20036179361606     -1.12001116792987     -0.27774954670128
  C          -1.13341221576731     -0.75998132165799     -0.17056018403260
  C          -1.54216490563651     -0.10946341850216      1.00920136303486
  O          -0.62973883704784      1.35788963402525      1.00207279401570
  I           0.85364140574583     -2.12711737078386     -2.03227226730696
  H           0.73701345773296     -1.47970488709573      0.58939538646362
  H          -1.71368733869484     -0.61461981968362     -1.06980477396783
  H          -1.17862598049531     -0.49370903837231      1.95550382410782
  H          -2.55106360944083      0.27431956794149      1.04888830228027
  H           1.07199981967074      0.80439629042289     -2.33570390180598
