15
Coordinates from ORCA-job NEB_product E -30.398469010820
  C           1.53139098971950     -1.94269435500055     -0.22713322000786
  C           1.16677796065129     -0.83107758703199      0.72386590606016
  O           1.18833112823094     -1.61003031986935     -1.53299686409107
  H           2.61626627452031     -2.10917840347096     -0.20214825959145
  F           1.71131043588533     -1.01975823592687      1.94969735128175
  C           0.81356681904075     -3.21316469087336      0.28726669289081
  C          -0.65691750013413     -3.02478871253999      0.39650392105293
  C          -1.33480141710219     -3.23527664759326      1.51039466650034
  O           0.46138749060012      0.09135354986209      0.51296645810621
  I           1.23584055565117     -4.82273615157234     -1.11617729504227
  H           1.24726567311182     -3.52365212598365      1.23807170403577
  H          -1.15642372413875     -2.70830732685318     -0.50954190996883
  H          -0.85286590903004     -3.56504948017004      2.41641251902499
  H          -2.39834243179757     -3.08264723580986      1.56012317705546
  H           0.42011365479144     -1.02229227716669     -1.53160484730693
