20
Coordinates from ORCA-job NEB E -49.692703977290
  C           0.67194031272981     -1.03107885493064      0.29905750917524
  C          -0.53651993306279     -1.02812846388237      1.03361137632139
  Cl          2.14466263808073     -0.80735420428879      1.20688977002689
  H           0.79444311320394     -1.81438273936049     -0.44309601252188
  C          -1.72880432974036     -1.76163503954105      0.43717404894645
  C           0.46717766804536      0.56388669896289     -0.67853856999207
  C           0.25419018272559      1.51763770768398      0.33438779051683
  C          -0.90867002346453      1.38610321234891      1.13837051853595
  O          -0.77366965686570     -0.07058922328696      1.87122593177254
  C           1.63833599082878      0.75992257034603     -1.61382835791277
  H          -0.40414284735566      0.26700470678810     -1.25825284630621
  H           1.10874792493441      2.03693424226281      0.74096995438096
  H          -1.84917856923922      1.25236809913903      0.61120541757813
  H          -0.98993153722293      2.06095526658044      1.98120916145650
  F          -2.21219185430529     -1.11097767197032     -0.66713728627683
  F          -1.38055074811929     -2.99297760602752      0.01016461508188
  H          -2.55577348884461     -1.85178112178775      1.15576980974093
  Cl          1.11308118291677      1.97327684657142     -2.82981830141893
  Cl          3.09803220805862      1.37920451843572     -0.83571547712759
  Cl          2.04882176669638     -0.72838894404345     -2.49364905197742
