20
Coordinates from ORCA-job NEB_product E -49.729951542250
  C           2.25312408439770      1.00545719733515     -2.32781917584450
  C           0.85982268617342      0.62329872713417     -2.79869640980468
  Cl          2.11384780867296      0.79225454203554     -0.55157805851294
  H           3.02740818222976      0.31806897311810     -2.67114619780185
  C           0.67857940432076     -0.86769533292426     -3.15376167756763
  C           2.59030661517200      2.45945724648750     -2.67149324454351
  C           3.63061743565891      3.03327782786315     -1.74865091815002
  C           3.46665796808555      4.16684584370143     -1.09556833652534
  O          -0.07422120190800      1.37030895829892     -2.78500787685486
  C           3.07308877574694      2.52322730265392     -4.12524391330085
  H           1.66960033329536      3.05103872972353     -2.60099167553379
  H           4.53660558257434      2.45377175778937     -1.65171488583469
  H           2.56631775763345      4.75177096341977     -1.18437510819016
  H           4.22848408740956      4.55418447803696     -0.44238788280631
  F          -0.20282848063607     -1.00756153935835     -4.15974352498149
  F           1.83504991952980     -1.43843961240869     -3.55738235522469
  H           0.30298742835274     -1.42993999529467     -2.28107515210524
  Cl          1.90262006976908      1.71649965814525     -5.20901561022415
  Cl          3.24525816749174      4.21368102931780     -4.62593075629993
  Cl          4.64217337603001      1.71129324492540     -4.32441723989334
