16
Coordinates from ORCA-job NEB E -29.069946753620
  C          -0.88553469926921      0.98103962929875     -1.96985725646594
  C          -0.98564651327369     -0.07076662742958     -1.10982795280992
  I           0.91500529884473      1.95057965452353     -2.53054975187520
  H          -1.41179547271898      0.83549281735886     -2.87952247844537
  N          -2.00301832617839     -0.94853805055189     -1.19052984329681
  C           1.94613225203797     -0.85808174603852      1.59897413635058
  C           1.01853700174439      0.04029575580620      1.92524808760081
  C           0.40582996144115      0.76709809692847      0.76397248288477
  O          -0.38900415341650     -0.22695266531389      0.10115689953788
  Br          2.68138501561902     -2.18096110388510      2.70343012929234
  H           2.22427204977120     -1.00690431176432      0.56378500559325
  H           0.63291668838729      0.30675252836740      2.87866720658647
  H           1.15547983635405      1.18925471256356      0.06958631738284
  H          -0.20065628208820      1.62700720956253      1.13029469668791
  H          -2.30092991323666     -1.30845234994993     -0.27946381450259
  H          -2.80297274401813     -1.09686354947607     -1.77536386452103
