16
Coordinates from ORCA-job NEB_product E -29.130540494540
  C           3.05591192729313      1.76168437978557      0.97585294104680
  C           1.55005899565850      2.04480995241185      0.99660399360953
  I           3.52179225572208      0.05522076233485     -0.27636778592190
  H           3.55715907153174      2.60404973223565      0.48994390563096
  N           0.97019255424288      2.12627360379607     -0.21471142139097
  C           3.57917432223134      1.59991718735075      2.39252579191848
  C           3.09696263568275      0.38543617444572      3.10216210735503
  C           2.45970580827797      0.42556125274384      4.25702630331944
  O           0.95733763529967      2.24198962780626      2.03093082891427
  Br          5.56070314816827      1.57529592049589      2.34010584248781
  H           3.31551247831288      2.49965969742704      2.95554310975976
  H           3.31991532010610     -0.55831789304312      2.62117539804620
  H           2.23393985837416      1.35610087319935      4.75006762075767
  H           2.12148922451124     -0.47323172756482      4.74193413079574
  H          -0.01871882316104      2.30960813575145     -0.25784070533139
  H           1.45716358774832      1.91204232082365     -1.06835206099746
