24
Coordinates from ORCA-job NEB E -32.768735057160
  C           0.78394913337402      0.16222990213163      1.02263639990192
  C          -0.52889279547368     -0.36025727067006      1.04322369383850
  C           1.03094046589012      1.42779635210204      1.61287392076720
  H           1.59735014289502     -0.53986773548977      1.18504443588577
  C          -0.72872331142024     -1.86008834807176      1.07993425132495
  C           0.90191265706022      0.66787484994055     -0.86912911466599
  C          -0.15889603181684      1.57386923901139     -0.95405850586971
  C          -1.47260030637967      1.10000837925532     -0.75576579345733
  O          -1.52575644371192      0.41298463883258      0.79231463337653
  C           2.31489828090504      1.14660035397095     -1.05717446042549
  H           0.72793022482271     -0.32704080050027     -1.27106384645521
  H           0.04781415169191      2.61060547808124     -0.72814165504107
  H          -1.77395442168967      0.21731366716841     -1.30865136756059
  H          -2.25835683134268      1.83954297833741     -0.67927845206380
  N           1.23637476644901      2.43489393816394      2.11848192875117
  C          -1.64375684677150     -2.36501173232337     -0.03397486739372
  H          -1.18616302986089     -2.10562589541391      2.04358465074139
  H           0.23966353915322     -2.36197342141568      1.03636843373767
  H          -2.59187959473581     -1.83351964484382     -0.00598003031754
  H          -1.83774411165120     -3.42690993146147      0.09511193341679
  H          -1.18473611520389     -2.21883665117394     -1.00999827593579
  H           3.03490772766890      0.40066111202264     -0.72798488251036
  H           2.48952137479379      2.07068283010431     -0.51150802068255
  H           2.48619737535402      1.33406771224162     -2.11686500936271
