24
Coordinates from ORCA-job NEB_reactant E -32.810334735780
  C           2.19888378737102     -0.20618497682833     -0.78141803556023
  C           1.75775093107762     -0.83904376757277     -1.88555425869870
  C           2.34797597012270      1.16772184556855     -0.56242522068349
  H           2.48280775935265     -0.81267212360564      0.06815435862030
  C           1.63176805153290     -2.33967734312912     -1.90717098843634
  C           3.82790564163452      0.99118193483505     -3.59371205552131
  C           2.72385697592566      1.68357752965877     -3.37287681326585
  C           1.34949016405190      1.09378635772538     -3.23201068337858
  O           1.33545539146205     -0.30860374239202     -3.04387434501722
  C           5.18550046478788      1.59131242504892     -3.72465466414729
  H           3.78489220478841     -0.08730200569670     -3.68464255799544
  H           2.75271718604510      2.75908124478946     -3.27632786430875
  H           0.78185062724311      1.25038243811142     -4.15736319001188
  H           0.81394349887466      1.59164867752617     -2.41390360072289
  N           2.49730853224041      2.27763467663433     -0.29998494852807
  C           0.26169739389004     -2.76994127366648     -1.37917811443744
  H           2.41826705415256     -2.78831090533645     -1.29956853142126
  H           1.74277899579253     -2.67886276535980     -2.93796010669456
  H           0.12881623556530     -2.44228856087048     -0.35058691625577
  H           0.17013473287282     -3.85252201186832     -1.41375076828865
  H          -0.52873542678384     -2.33529333108269     -1.98595281022384
  H           5.84303799080553      1.19831635688924     -2.94981125882363
  H           5.14196170366706      2.67284305381574     -3.63119491891069
  H           5.62043413352743      1.33321626680578     -4.68983170728838
