22
Coordinates from ORCA-job NEB E -48.195093105020
  C           0.60022587440428      0.65145830089928      0.42674071917431
  C          -0.68426206979937      0.57349225238820      1.01281355818412
  C           0.86661874270704      1.75868895097413     -0.58222478233678
  H           1.45320892670394      0.57236475038584      1.09741383362867
  C          -0.83426654850332     -0.03695257839642      2.38933800835903
  C           0.58507389223685     -0.94100579238631     -0.55041882081633
  C          -0.56685792811508     -0.87086244985040     -1.35018078382013
  C          -1.82345688210033     -0.72054995771181     -0.68857422668405
  O          -1.71863625698218      0.57706056958683      0.21867961409188
  N           1.88195623810311     -1.02299550814551     -1.24615769984053
  H           0.60916785126471     -1.61003393260302      0.30736355951372
  H          -0.45159942388532     -0.53084752358428     -2.36875851735459
  H          -2.06176244392233     -1.47729270362203      0.05897665687809
  H          -2.66793381061279     -0.50680763234556     -1.33346181864377
  F           2.13098187469856      1.66714116630976     -1.05528447583624
  F           0.05256737264240      1.74415448293406     -1.65119996497461
  H           0.76861891196617      2.74520962235065     -0.09856626643714
  F          -1.78031240581086      0.63705112209399      3.11508497541977
  H           0.09905680176944      0.00691123465778      2.95741945908608
  H          -1.19081230695876     -1.07691585227513      2.31703773757038
  O           2.82220834931385     -1.31465600861402     -0.54622021837296
  O           1.91021524087998     -0.82461251304605     -2.42982054678893
