20
Coordinates from ORCA-job P E -33.605890970130
  C          -1.41431497996622      0.42228396459800     -2.31382833066707
  C          -0.07958195824009     -1.67463350264922     -1.13659831580306
  C          -1.46134009757121     -1.91452155960607     -1.65284282047838
  C          -2.10594761170679     -0.90637876697601     -2.21760779559818
  C          -0.80295452465889      0.78113388983964     -0.93852509047953
  C          -0.05380000142496     -0.39193277394244     -0.28134932260960
  H          -1.89488970557134     -2.89623063052918     -1.54982000390424
  H          -3.10500603088817     -0.98584729165197     -2.61647449123223
  O          -2.24118505967365      1.45549938077993     -2.78683203869539
  H           0.27861684455023     -2.51485454305161     -0.54224776168859
  H          -0.60283993970807      0.35692298872106     -3.05009839462622
  H           0.60255320881229     -1.53968826372368     -1.98167454190229
  H          -1.61906443963432      1.10420346114553     -0.28787793100734
  H          -0.51030014240588     -0.62095629403198      0.68660070023198
  H          -0.13582636360010      1.63300249263974     -1.07820015461137
  C           1.39182939400920      0.00098496522684      0.01358753721635
  H          -3.01791634935007      1.51871090160608     -2.21888448142418
  F           2.04303694198632     -0.99706323771492      0.66299316478594
  F           2.08928071060228      0.22292054301698     -1.12647797103729
  H           1.47667010443946      0.90665427630327      0.63506804353070
