20
Coordinates from ORCA-job R E -33.520902828090
  C          -1.12486226256355      0.09824917248831     -2.75631497080252
  C          -0.59163275181634     -2.70616290601544     -1.75692733974577
  C          -1.78250476155490     -2.13613945185065     -1.91418086200996
  C          -2.04336304750722     -0.77958791476747     -2.34923367824677
  C          -0.92033202488829      0.90388227407529      0.43637338159819
  C           0.18960065481703      0.19279054184857      0.41198895605460
  H          -2.67176391625206     -2.71469321175076     -1.69651857902518
  H          -3.08319604690694     -0.47070671156138     -2.33636615807865
  O          -1.37785094325388      1.37095307614856     -3.14001409951248
  H          -0.50460334999828     -3.72698641140286     -1.42728587910774
  H          -0.07245700000332     -0.12779495094765     -2.81699118046454
  H           0.33027355621961     -2.18682328705772     -1.94827112382467
  H          -1.82518338396062      0.51614218033308      0.87007624895577
  H           0.24766630414305     -0.80674855099019      0.81621585721254
  H          -0.96696145615914      1.89914514166779      0.02571643155578
  C           1.46456419968618      0.70174838087586     -0.18360316669792
  H          -2.32935779910872      1.53885573979581     -3.10893831883935
  F           2.43936358056400      0.79197351426509      0.76065285745289
  F           1.93948162968928     -0.16522140593399     -1.11761496068350
  H           1.36537881885410      1.68815478077975     -0.66150341579071
