20
Coordinates from ORCA-job TS E -33.507914216620
  C          -0.89516726574473      0.59100553081951     -1.43614322127832
  C           0.42712920588871     -1.60154283933273     -0.13107529654085
  C          -0.90630657769325     -1.60318774777348     -0.38994581452317
  C          -1.55333685530814     -0.53646033937780     -1.04266860667614
  C          -0.24407853751636      1.18980470065526      0.69760987874846
  C           0.53214139794573      0.20701764740819      1.22809762846473
  H          -1.53703157165720     -2.34817992456727      0.07578005175542
  H          -2.63731146335573     -0.53185331057508     -1.05833479450784
  O          -1.51417619231785      1.68107389440168     -1.94114038296308
  H           0.86255446794300     -2.38960479744496      0.46106363486665
  H           0.15886066377721      0.60782683984803     -1.65879343149042
  H           1.11223440472289     -1.06775524573914     -0.76296605099994
  H          -1.27260387694814      1.28338959280826      0.99313835449807
  H           0.16628999288392     -0.44570048007416      2.00324637769092
  H           0.20035857565434      2.03511514932370      0.20399829490066
  C           2.02883889367861      0.33966986182902      1.19580022179618
  H          -2.47057081159564      1.60549480233417     -1.82300924000373
  F           2.65817611123521     -0.82579845429717      1.48818387157712
  F           2.48639924679296      0.72241447967742     -0.02517163151150
  H           2.39760019161444      1.08727064007656      1.92233015619681
