19
Coordinates from ORCA-job NEB E -39.893087127080
  C           0.78324874054788      0.09037693986385      0.54661899130408
  C          -0.20454967462070     -0.94434325761561      0.35586649168052
  N           0.08925629199315      1.07180788566856      1.41888738215542
  H           1.70337149673413     -0.24738763233967      1.02203731669703
  C           0.00156486711740     -2.33894508733636      0.83266793350194
  C           0.98555981051554      0.94760945500134     -0.77048774133963
  C          -0.35794237616056      1.40011958569629     -1.09050783646225
  C          -1.35530270674552      0.33164301396324     -1.31195242257049
  O          -1.36339924279211     -0.66061423774715     -0.26178441826602
  I           2.37707986127326      2.57533721051210     -0.42605692514536
  H           1.45489541937757      0.29914678892082     -1.50525950730224
  H          -0.59222868609785      2.41366834569269     -1.35790120326243
  H          -1.15608396553965     -0.21688147282485     -2.23990646089195
  H          -2.36869752569633      0.73318044188169     -1.33670443783446
  O           0.44607156181442      1.20607124959796      2.57316112520782
  O          -0.89361203457085      1.58914702850565      0.87344515676312
  F           1.06622528963418     -2.91851212940017      0.15538768024231
  H          -0.88142524678827     -2.94802927266856      0.62745004874587
  H           0.26596812000433     -2.38339485537184      1.89503882677672
