19
Coordinates from ORCA-job NEB_reactant E -39.928371901510
  C           1.86738424563823      0.11650370640716     -0.28118352786139
  C           1.55152960080901     -0.70100656974673     -1.30730630630525
  N           1.53651128135117      1.47386921494588     -0.07025290328350
  H           2.45888405163727     -0.29076406595477      0.52616893774646
  C           1.92673726369364     -2.16646787186542     -1.20209155906586
  C           2.48770078115355      1.86339928118913     -4.62593578929432
  C           2.20335260155311      1.37073927297510     -3.43568553208288
  C           0.86503991988503      0.78657060463833     -3.09831372468696
  O           0.98316922689408     -0.49972923297100     -2.49291568928200
  I           4.34443418423802      2.71745169799082     -5.09886656769146
  H           1.78429129666799      1.88264902227889     -5.44116813519352
  H           2.93844930049127      1.37505149129727     -2.64295442442743
  H           0.27754746092567      0.60479176082169     -4.00048048127463
  H           0.31843939404276      1.47550927209971     -2.43831958171857
  O           2.28240202414458      2.11317525998526      0.64216488827440
  O           0.51373757087044      1.92065036217540     -0.56776755364562
  F           2.25002401066433     -2.52863033275426      0.06912781311574
  H           2.79505899815506     -2.38217754446993     -1.83638285898745
  H           1.07920678718479     -2.78138532904253     -1.52293700433572
