15
Coordinates from ORCA-job NEB_product E -26.188154545510
  C           0.91076934039504     -0.31449356767058     -1.28948663393514
  C           1.68276364117501     -1.37490336779205     -0.51278756560361
  H           1.62436000620129      0.45529702673505     -1.60148328291494
  H           0.17085109629126      0.15207913682418     -0.63134286991934
  O           2.17515245618951     -0.95141632351550      0.66318744788786
  C           0.22791226433991     -0.93390557851922     -2.49830057042834
  C          -0.86822099326509     -1.86054821527888     -2.12358966343715
  C          -0.99078865554417     -3.08133126603188     -2.61230001033336
  O           1.86818214803818     -2.49078737727175     -0.89490462141889
  I          -0.60183245538587      0.68167216689350     -3.73665276977404
  H           0.95696370576546     -1.43137374120514     -3.13632069470934
  H          -1.58884913514030     -1.47096499050311     -1.41546522134097
  H          -0.28305997345089     -3.48205718005068     -3.31821921621858
  H          -1.79306291114369     -3.73204856836652     -2.31196198954595
  H           1.96845946553436     -0.02761815424742      0.85792766169179
