15
Coordinates from ORCA-job NEB_reactant E -26.160864868280
  C           2.25458599857405     -0.27132861305218      0.01086900394577
  C           1.33718215806060     -1.07676915396076     -0.51186564095768
  H           3.12420096121136     -0.00555123378209     -0.55392630463256
  H           2.15322355477169      0.12312268415323      1.00366398119229
  O           0.20109877260435     -1.46720118245137      0.13544631359651
  C          -1.10509249343330     -1.40252605507004     -3.99638940533441
  C          -0.71863538979189     -1.49362865097679     -2.74067325364970
  C           0.43340779122854     -2.35360466895889     -2.30562846225766
  O           1.49112542952234     -1.58674776928005     -1.75488476837303
  I          -2.72003487664512     -0.20777885270514     -4.61751752985960
  H          -0.64161036139983     -1.94228691313935     -4.80475193689113
  H          -1.20204574985065     -0.93162302408515     -1.95491317168335
  H           0.87910489157577     -2.86921437259423     -3.15946621178720
  H           0.07879150770035     -3.09115439876972     -1.57460544603624
  H           0.19739780587174     -1.08840779532749      1.02054283272800
