17
Coordinates from ORCA-job NEB E -39.771748857780
  C           1.07814763437342      0.21828429422090      0.16190377834079
  C           0.41881095719196     -0.17076300838076      1.34381810856969
  C           1.02789061664393      1.68095771620631     -0.18446374639380
  H           2.09098937411659     -0.16389163826513      0.03739051089671
  Br          1.17244999070308     -1.74636170246873      2.22960474317863
  C           0.01906795312077     -0.92496494933959     -1.04249383700054
  C          -1.31115999596002     -0.60563173288042     -0.75159235936295
  C          -1.79259359380168     -0.84496207359702      0.55737817713099
  O          -0.79987989068052      0.06674992475802      1.55430647109447
  Br          0.59564918108426     -0.71666738684208     -2.85588787275993
  H           0.43735632833505     -1.84353640725132     -0.64200708437395
  H          -1.83830130000248      0.08767598258967     -1.38852472372173
  H          -1.58590266050887     -1.81593984867005      1.00035960701265
  H          -2.77696598526257     -0.46281657617378      0.79345978632832
  Br         -0.72998460209898      2.47470914991999     -0.32372726393120
  Br          1.95855727344649      2.64744388719102      1.30012946892944
  Br          2.03586871929958      2.11971436898297     -1.78965376393759
