17
Coordinates from ORCA-job NEB_reactant E -39.810982778550
  C           1.58251703983596      0.07892848363137      0.10591532426822
  C           0.92384132497256     -1.05886382758451     -0.15907508877787
  C           1.96793497022247      0.97377268130848     -0.99999392373338
  H           1.84013320548668      0.35262084493982      1.11461794494926
  Br          0.42910396607595     -2.22226208476262      1.26417522528341
  C           0.19688157391408     -3.46740588270291     -4.02523982162814
  C          -0.30192802756670     -2.55245073811114     -3.21262834926946
  C          -0.07760038349494     -2.57569593524249     -1.73402458944772
  O           0.61638009795184     -1.37839369370695     -1.40571695231470
  Br         -0.09242995416525     -3.44098344326753     -5.88311385331797
  H           0.78549248927262     -4.30956778077004     -3.69496646631614
  H          -0.87309878271827     -1.71560965268327     -3.58691392403039
  H           0.51806339556628     -3.44725953783383     -1.43714509317695
  H          -1.04069004131940     -2.59742368714667     -1.20621263021218
  Br          2.89557355390713      2.54741591833457     -0.34700525840967
  Br          3.15274731177409      0.05652636852799     -2.29585266671981
  Br          0.39487826028489      1.57645196706973     -2.03071987714652
