25
Coordinates from ORCA-job NEB E -49.399912386730
  C           0.10232290333784     -0.59185965547397     -0.77922403443131
  C          -1.03297218817871      0.20933256000986     -0.47936520080616
  C          -0.12558139573579     -2.06040540540553     -1.02555938093167
  H           0.72993457206655     -0.19416931644811     -1.57877188574484
  C          -1.21832656299182      1.55551362404573     -1.12516908269850
  C           1.07979377330365     -0.31922715925547      0.80886201906121
  C           0.21430710493913     -0.64849975402790      1.86799216070499
  C          -1.04242799369658      0.02868351543229      1.94520068132506
  O          -1.76981589534656     -0.11428211044567      0.54734537109618
  N           2.32572284459892     -1.08600600655306      0.76487765072438
  H           1.31336179049893      0.72227939216722      0.60540633252494
  H           0.34305866961357     -1.60657020715362      2.34709194320127
  H          -0.99540701947414      1.11268972188038      2.03066635635877
  H          -1.75155485776205     -0.39860424690766      2.64604486834662
  Br         -1.31176834851938     -2.16255633908288     -2.62826356296008
  Br          1.51272003390729     -3.00560628203806     -1.54655695007483
  Br         -1.01950364497081     -3.05069914705889      0.36592193194157
  C          -0.07639290048869      2.54479924509775     -0.86913214161387
  H          -2.15331888606011      1.97149042718302     -0.74734639496917
  H          -1.32255383518817      1.40925658572447     -2.20344984076421
  H           0.03500420301431      2.75032133412294      0.19321740766420
  H          -0.30103356178672      3.48264605454203     -1.36963448748498
  H           0.86803764181354      2.17522080800862     -1.26150988702336
  O           2.34220606817705     -2.17424670758933      1.28352476397416
  O           3.25418748492875     -0.54950093077419      0.20783136257962
