25
Coordinates from ORCA-job NEB_product E -49.447805782140
  C           2.43269155233927      0.23917264747137      1.25053739137160
  C           1.25764719238331      1.24343715629668      1.23161682850142
  C           1.89838690505498     -1.17381298659223      1.09522120942192
  H           3.08024233753052      0.43166742970468      0.38356352878072
  C           1.32052197444251      2.26916975870946      0.13572433132432
  C           3.28768207848345      0.50426496431248      2.50927993258234
  C           2.90112063797795     -0.21797999758349      3.76166039061806
  C           2.25117595819768      0.36412807349502      4.75224597588148
  O           0.39237834986879      1.18949260654254      2.06081581954572
  N           4.74170054510180      0.24379459058697      2.19259000905277
  H           3.25010717433227      1.58645757822159      2.69635228119094
  H           3.21208908945774     -1.25058986498658      3.83198857038230
  H           1.93974304431325      1.39460114978956      4.70779642912732
  H           1.97804588042315     -0.18217148410843      5.63666999259764
  Br          1.07487834242279     -1.30136218571060     -0.68627592595532
  Br          3.36735794568850     -2.48378352718912      1.15305876832678
  Br          0.54715767857964     -1.70990945652584      2.37969715316702
  C           2.52960257305960      3.19699268262012      0.28672014754379
  H           0.39987463540797      2.85373985925254      0.16680204739083
  H           1.37688754466970      1.75381294732018     -0.82617040838180
  H           2.49331492894008      3.71752565653032      1.24135497273879
  H           2.50810426422051      3.94144036944000     -0.50410085583908
  H           3.47048833367890      2.65687534629330      0.21205148090961
  O           5.42303535973780     -0.19045443025988      3.07767969437392
  O           5.11596567368784      0.55319111636934      1.08762023534690
