23
Coordinates from ORCA-job NEB E -37.745257362680
  C          -0.06534121982008      1.10421439997442     -0.76743714353931
  C          -0.87520564556943      1.14765089470869      0.37775508121325
  C          -0.59367149865678      0.56999908951800     -1.95525801790538
  H           0.67023024319740      1.88826418650227     -0.89323036821742
  O          -0.52183571790422      2.09341753527064      1.28753854766093
  C           1.12211189134051     -0.56807127018573     -0.14925534796766
  C           0.08189671635543     -1.48722425898497     -0.01668795828869
  C          -0.83577036116448     -1.32043746972691      1.01775398271835
  O          -1.70935437956510      0.24376173919312      0.66226890784525
  O           2.12220801960157     -0.61849702686607     -1.04125595989343
  H           1.46721375608646     -0.04037285167275      0.73565294142389
  H          -0.21573162311615     -2.06735153098258     -0.87652524249186
  H          -0.47753917617108     -0.99145982941561      1.98335715641585
  H          -1.69457056570598     -1.97126818186213      1.05558254196651
  N          -1.02751957563154      0.15316231747773     -2.93296407799918
  C          -1.22475861479133      2.10037771976344      2.51755420626661
  H          -1.23660515382115      3.13201633120855      2.86375368417483
  H          -0.71139177953070      1.47274580317156      3.25110739812000
  H          -2.24366618714433      1.73327906482209      2.38056415321266
  C           1.99911028683997     -1.48294045752637     -2.15852780672934
  H           1.96444596955451     -2.52696400165894     -1.83540011109012
  H           2.89262970392417     -1.31490904623835     -2.75634836241809
  H           1.11311491169233     -1.24939315649010     -2.74999820447764
