23
Coordinates from ORCA-job NEB_product E -37.773177425330
  C           2.85052777098430     -0.97670127623729      0.67057216165758
  C           1.60777622795430     -0.62222357956960      1.49272767109377
  C           2.47675214230325     -1.16156170250152     -0.70928044667549
  H           3.61395359935081     -0.19315125289400      0.70875614582937
  O           1.73784656037015      0.26532207350417      2.48440701325615
  C           3.46103532451938     -2.27791055010715      1.31143202201396
  C           2.60926557378107     -3.46747438526830      0.96950147498103
  C           2.03991359295750     -4.23013527723093      1.88241719727550
  O           0.54914813498029     -1.15173479781147      1.31363230806651
  O           4.82917127565480     -2.39623465531839      0.99821470266430
  H           3.46127699734067     -2.13791268665296      2.40083651207683
  H           2.46372836762281     -3.65793340945111     -0.08421336628413
  H           2.16127190302762     -4.04591499668146      2.93737233930944
  H           1.42085368094569     -5.06675440766472      1.61017605962689
  N           2.20054658260733     -1.27969296061207     -1.81239909954315
  C           2.94177119126762      0.95100992101929      2.77674861889647
  H           3.21858122019003      1.63376609915291      1.96881492092837
  H           3.76493627193284      0.26390179165153      2.98614364856492
  H           2.72570661209866      1.53355470897468      3.67116828480056
  C           5.15446602907793     -2.89606277294937     -0.28267231881883
  H           6.23443896133195     -2.79054382302048     -0.36778191960371
  H           4.66982621960095     -2.32491598755272     -1.07949474044837
  H           4.88620576010005     -3.95199607277904     -0.37847918966797
