23
Coordinates from ORCA-job NEB_reactant E -37.771947253870
  C           2.56688281939209     -0.01009905364114      0.23278443887045
  C           2.07599936435429     -0.35307946065677      1.44020244835362
  C           2.59574781147299     -0.87432940693733     -0.86304244278312
  H           2.94494512653382      0.98882052417963      0.08063878119004
  O           2.09522713292174      0.57535992336767      2.42101548577580
  C           4.62106090510224     -2.70394966447199      1.02046710236409
  C           3.33733972471816     -3.05249321908537      1.06451025064904
  C           2.43350314239066     -2.59077387391332      2.15653515768659
  O           1.52342697059239     -1.55354006007265      1.72441746031643
  O           5.54418034788948     -3.00950155498070      0.09639673535422
  H           5.07440147891679     -2.11721563998092      1.81171405492970
  H           2.87117837363107     -3.61807368809279      0.27519570892667
  H           3.01818652965317     -2.23155813621496      3.01263622018220
  H           1.76235540753868     -3.38868528840197      2.48116306315241
  N           2.64302377550625     -1.55741975792714     -1.78617928289930
  C           1.42999308546532      0.28214205547064      3.63645770915697
  H           2.03923442876816     -0.36687060192628      4.27212213774696
  H           0.46605462785542     -0.19591117783356      3.45272921776816
  H           1.28476742712302      1.24030128881094      4.13121201262479
  C           5.12064964819264     -3.73848546965504     -1.04097231664485
  H           5.99847652615617     -3.83115485757527     -1.67705717171265
  H           4.32960254410238     -3.20518731782863     -1.57384930550365
  H           4.76686280172305     -4.73319556263305     -0.75489746550459
