23
Coordinates from ORCA-job NEB_reactant E -50.338303864160
  C           1.05808985585926      0.50656580608832     -0.08027586001380
  C           1.02432633568845      0.91550041507731     -1.35240273548415
  O           0.37618973278659      1.10747932633574      0.92837883902948
  H           1.64487973612945     -0.36116614729808      0.19237660244123
  C           1.72529539020889      0.22437401125656     -2.46596550923928
  C           0.12897286188582      4.24264670150902      0.98546393431754
  C           0.56303754466973      3.55605716454541     -0.06531940061291
  C          -0.31399265189749      2.89617889358688     -1.07365479878048
  O           0.36870576799520      1.98877647299148     -1.90487309579766
  N           1.04941285304230      4.80691920308366      1.92455179622732
  H          -0.90643393459159      4.41818914281219      1.23129455459152
  H           1.63318980801999      3.46404746670857     -0.21661409641252
  H          -0.70644615265599      3.64564517482853     -1.77126753928225
  H          -1.16092540141639      2.40522660682757     -0.57883711802387
  C           0.83143070002946      0.79884000588194      2.23122412978523
  H           0.09928159050507      1.22318124350195      2.91491210043905
  H           1.81094998940137      1.24787909197440      2.41905010631767
  H           0.89200916748965     -0.28227107537772      2.38251445189750
  Br          2.72943107175688     -1.33963018663016     -1.97217759212127
  Br          0.40467717191036     -0.30578831929509     -3.82060724211259
  Br          2.95692240409285      1.49702686889272     -3.31632230266626
  O           2.23114069318751      4.57488406285810      1.78209471086927
  O           0.57325546590264      5.47103806984071      2.81925606463123
