20
Coordinates from ORCA-job NEB_product E -32.018229186420
  C           2.45116504645763     -1.07351690430729      0.31412404623402
  C           1.10641713378047     -0.78251278387079      0.91319864006446
  C           2.32708541513957     -0.60152871687151     -1.15080492175708
  H           3.22500918129421     -0.48622355989577      0.81602410995230
  I           0.98994351875092      1.21369831690095      1.77704519029418
  C           2.74193731343753     -2.57090914603357      0.48060298016547
  C           2.36088315494225     -3.07834570759381      1.83011289341582
  C           1.63445247278670     -4.16270848382977      2.02577943287531
  O           0.14192551766646     -1.46219966154034      0.90601004358932
  Br          4.69273639512247     -2.89436885237696      0.28999056631125
  H           2.26983672945597     -3.15850460725304     -0.30876939845572
  H           2.74831191550223     -2.50691404729670      2.66428956843955
  H           1.38624191545410     -4.50392051190683      3.01509064010362
  H           1.25062707120713     -4.74584325767239      1.20502870068861
  C           3.63605211074077     -0.62839985720293     -1.92945677474826
  H           1.95515240846524      0.42711475884015     -1.13654339107976
  H           1.57893066338251     -1.21727527315454     -1.65689590122373
  H           4.42282215343129     -0.11385648468842     -1.38347951472334
  H           3.49359019575374     -0.12346038973641     -2.88177046569969
  H           3.96257968722884     -1.64332483051003     -2.13377644444634
