18
Coordinates from ORCA-job NEB E -43.124493119670
  C           0.89425308170550      0.46731561690863      0.30423205188028
  C          -0.50026197257055      0.89802920548140      0.30115859760919
  Cl          1.72095819147222      1.09388121462751     -1.26698085656111
  H           1.45692307477666      0.97562391638896      1.08678812115207
  C          -0.78833895667200      2.36697684091503      0.42554708940624
  C           1.05603359733233     -1.05084201882709      0.38625948423637
  C          -0.26694474655375     -1.72518519739555      0.28297032554438
  C          -1.37780757516698     -1.11821916927989     -0.45603743633597
  O          -1.50682770907993      0.26026649976570     -0.33869485145451
  C           1.88553644939454     -1.60972485319759     -0.67847732689819
  H           1.54774516605792     -1.31779904594836      1.33156266380459
  H          -0.27599317811613     -2.79963869702167      0.36775532907051
  H          -2.34090791481303     -1.54093664202982     -0.14417165222057
  H          -1.27411526135531     -1.34564571027464     -1.53110309318281
  F           0.09375002804514      2.97348020900621      1.23347208499243
  F          -0.76306665845229      3.04322039093991     -0.73920747289460
  F          -2.00419879341427      2.58405069230521      0.94819351151677
  N           2.44326317740996     -2.15485325236396     -1.51326656966508
