18
Coordinates from ORCA-job NEB_reactant E -43.183863837980
  C           2.38955083265825     -0.33473835210461      0.41150417959330
  C           1.62666877259592     -0.43935312033600      1.50034139520107
  Cl          2.64970869008143     -1.52476295748988     -0.79936488716663
  H           2.93040706909450      0.57942999193893      0.22700488432199
  C           1.56569167262841      0.73624708250004      2.46516317440626
  C           3.05766852211515     -3.19000223648578      2.31424372207795
  C           2.06008748081878     -3.47662970222900      1.47993442765613
  C           0.79141393733769     -2.68924522090465      1.38050460219694
  O           0.84671908932223     -1.41824931642271      2.00560360420738
  C           4.23489555923398     -3.96181681558459      2.36667351445867
  H           3.02078730379843     -2.34838582356515      2.99450710358339
  H           2.11891946497495     -4.33247223357751      0.82229644679699
  H          -0.00512929261977     -3.21366155751023      1.92205020783963
  H           0.48366538290518     -2.59264231252466      0.33390574457954
  F           2.12527562625612      0.41678379121907      3.64082163237285
  F           2.20771959528741      1.81930223513017      2.01734826555037
  F           0.30948537780013      1.10570415149575      2.72010474372422
  N           5.19696491571121     -4.58260760354917      2.41745723859995
