18
Coordinates from ORCA-job NEB_product E -43.176018137040
  C           2.87811582159500     -1.09385964411026      1.89028416212656
  C           1.59365678277002     -0.37221404962275      2.21667487040021
  Cl          3.34441859059640     -0.50668467084511      0.24908365739300
  H           3.67776612363707     -0.77507643848498      2.56745454917688
  C           1.71914045739836      1.18415758450338      2.24405778461294
  C           2.70476962968333     -2.61877184531331      1.92042774624599
  C           1.71720585158103     -3.12772821793047      0.89818091238359
  C           0.71844765504951     -3.93446577934851      1.19579784312251
  O           0.53778401301971     -0.88625525290950      2.42794506802942
  C           3.98655309535221     -3.25284862867812      1.67797014570963
  H           2.36767174151715     -2.90020888709439      2.92624296518545
  H           1.90023045482317     -2.80516873733546     -0.11619698449361
  H           0.52894191719871     -4.26731491521601      2.20285632933703
  H           0.04116295473693     -4.28928415317426      0.43933689541069
  F           0.91148296159497      1.69467645644274      3.17416627755009
  F           2.96084710656582      1.59185341420845      2.53405701912708
  F           1.37950312368849      1.72589433275946      1.07289748165660
  N           4.98700171919211     -3.76280056785087      1.47366327702594
