17
Coordinates from ORCA-job NEB_reactant E -38.656742668010
  C           2.08424281599706      0.30957087282734     -0.26344236588935
  C           1.58747949057069      1.48861724134932     -0.63679616358646
  F           2.66803284862998      0.06419674516393      0.92540309339241
  H           2.07280906365136     -0.56449254300499     -0.89285835355376
  C           0.96145099158496      1.58884767570400     -2.01533493952263
  C           4.23214920724156      4.11738587898494      1.16958028884597
  C           3.60779607235331      2.95149860007717      1.17760862054941
  C           2.11343135562461      2.84755432363010      1.28070779893849
  O           1.50313549171931      2.66791039321681      0.00553012433241
  Cl          5.93318059888723      4.26067477728304      1.02821033211797
  H           3.72135844520452      5.06415963507525      1.26246857350616
  H           4.15871967755193      2.02894770812767      1.07474935544669
  H           1.68850018458719      3.78705124865069      1.64010867131593
  H           1.83034391238352      2.03592470184245      1.95788224839933
  F          -0.34006799713814      1.94160552964953     -1.92533937207098
  F           1.56970438979411      2.54778294488029     -2.74659417311661
  H           1.01843345135681      0.64466426654245     -2.57738373910500
