26
Coordinates from ORCA-job NEB E -35.622776773970
  C          -0.61103540508034      0.89376511087398      0.20018756973960
  C          -1.54552362427348      0.02998288578181      0.78035507253463
  C          -1.02903234975835      1.73076195608225     -0.98449915517392
  H           0.01933241914608      1.43324639581079      0.89947501413565
  C          -1.29457320696339     -0.41190757113961      2.21344310901186
  C           0.61329227979113     -0.45054464339866     -0.64121793770622
  C          -0.05225769240271     -1.67799909818988     -0.60067011699185
  C          -1.39090392491164     -1.71342368859246     -1.04561917670038
  O          -2.25392840867066     -0.75748342628436      0.04416429667133
  C           1.95504774600861     -0.32556298022538      0.04410003650289
  H           0.56262876212675      0.06793812733595     -1.59026958180258
  H           0.23315534671760     -2.38410015163810      0.17104876872074
  H          -1.93162054419847     -2.64624492649818     -0.95517235153578
  H          -1.61495213826198     -1.18141844525277     -1.96381668978076
  H          -1.64874716634137      1.15920936817646     -1.66917716093550
  H          -0.17101790228927      2.13381676143999     -1.51750489817192
  H          -1.62064765958953      2.57187545663849     -0.62086863017334
  F          -2.43868036024046     -0.87653696560585      2.80446531257057
  H          -0.91987555927226      0.40671061242354      2.83513989156291
  H          -0.57963953439750     -1.25100007674037      2.21536969504993
  C           2.68888003028940      0.96384318783398     -0.30482608941040
  H           2.57365533835933     -1.17461132002147     -0.26112071214551
  H           1.82473955054837     -0.39776877865833      1.12672210429145
  H           2.85679396761846      1.02643378643713     -1.37786256817700
  H           3.65527660694147      0.99461485000082      0.19293384954949
  H           2.11963342910422      1.83640357341023      0.00522034836409
