26
Coordinates from ORCA-job NEB_reactant E -35.665619616150
  C           1.66656711232165     -0.25957765725003     -0.00043777370363
  C           1.40798454494415     -1.50322275164356      0.38810264913230
  C           1.82389430162835      0.25615283352165     -1.39605917125495
  H           1.76364340299977      0.47480307260728      0.78509845491012
  C           1.19410745480555     -1.86810782962955      1.83976436459190
  C           4.56030055622484     -2.16027027405428     -1.65752221201285
  C           3.60285475905066     -2.73611378938256     -0.95117480365807
  C           2.18547063658915     -2.89467385785410     -1.41152325645224
  O           1.24287887493065     -2.63517771875085     -0.37998987664223
  C           5.97045496465135     -1.98195460062038     -1.19672808242192
  H           4.34156987419998     -1.76510901739785     -2.64235682520304
  H           3.80936155923271     -3.13670916305120      0.03259520288826
  H           1.99139896565755     -3.94085849184008     -1.67851484820129
  H           1.99797310969275     -2.27479564297448     -2.29482730888054
  H           1.11588863044728     -0.21722828848652     -2.07268310758293
  H           2.83415334254513      0.07742044828087     -1.76588258941965
  H           1.64497932771536      1.32841650028756     -1.40992713379030
  F           1.06958848226226     -0.76919113132359      2.64611479979190
  H           2.04028582015089     -2.45122828646261      2.22429976813551
  H           0.27514452295199     -2.45643722074827      1.93851557934800
  C           6.32461689841810     -0.49725185534284     -1.10463594204845
  H           6.64605871604946     -2.46666267591797     -1.90707742746610
  H           6.10513642564893     -2.45365232872767     -0.22202283327101
  H           6.21341762930148     -0.01675750524274     -2.07438376807633
  H           7.35268851271673     -0.37148252427278     -0.77407171937744
  H           5.66858157486326      0.00216975627656     -0.39507213933502
