26
Coordinates from ORCA-job NEB_product E -35.673675129220
  C           2.92351237844513     -0.72486845116100     -0.27968980614254
  C           1.57162183217550     -1.32091615207481      0.09533216731146
  C           2.65531499865109      0.58122704372688     -1.02990990863248
  H           3.49445904624722     -0.52839203260947      0.63251931484754
  C           1.48094990640059     -1.73720188326144      1.55843872335483
  C           3.70340423166211     -1.74631832603868     -1.15575647965699
  C           3.22039785399929     -3.14943696123196     -0.90777033010361
  C           2.54594208189620     -3.87242693644127     -1.78066289195018
  O           0.65300456947863     -1.42460243458129     -0.66749272468887
  C           5.21553148210804     -1.71440207138946     -0.88688653798179
  H           3.51756276010521     -1.50048459896382     -2.20484207694279
  H           3.48854342820717     -3.56934249680139      0.05402344780250
  H           2.22526670803278     -4.87658670407906     -1.56291101837001
  H           2.26938453463567     -3.48145912481316     -2.74544453422283
  H           1.96178906787814      0.39121222003936     -1.84568927214248
  H           3.56978974056305      0.99995960354567     -1.43607584093544
  H           2.20346261339372      1.31264017726952     -0.36228856877040
  F           0.29969033010677     -2.35800856648243      1.84487174570407
  H           1.54342052245373     -0.84484409523217      2.19414051476629
  H           2.28821834641243     -2.43076922204553      1.81667486289662
  C           5.90378466708245     -0.40447635786889     -1.24877343166699
  H           5.66676713778953     -2.52042402459032     -1.47116490966459
  H           5.39548855469447     -1.93630154055051      0.16837777880090
  H           5.69197662823152     -0.13184495396188     -2.28019263794411
  H           6.98091084536663     -0.51332565831378     -1.14140493822433
  H           5.58290573398294      0.40399354791092     -0.59722264744380
