19
Coordinates from ORCA-job NEB_product E -48.638175079540
  C           2.52170447194454      1.00984513897131     -1.18231597159212
  C           1.28253068995207      0.89601104956623     -2.04975897061853
  N           2.10319494771492      0.91152191962926      0.27385213555910
  H           3.21752761983195      0.18545880444475     -1.37230156140610
  C           1.23263548996903     -0.44693175258713     -2.84102312894760
  C           3.23323057503651      2.36388321484728     -1.35695739482747
  C           2.43189327427316      3.54692499862672     -0.94334129389432
  C           2.88288367454112      4.43610317175425     -0.07562605298229
  O           0.39158980091643      1.68324297130257     -2.10566410071868
  Br          3.70475552236254      2.51585750112999     -3.29238013286701
  H           4.19482302544724      2.33455213548700     -0.83709793562298
  H           1.46433393978527      3.65614765164250     -1.40936265098869
  H           2.29291098751938      5.28989203519838      0.20388714556666
  H           3.85065356254593      4.34473081901059      0.39122596128140
  O           2.68113289429404      0.08437014463032      0.91995117044865
  O           1.26385572814835      1.67823221719252      0.64600788817728
  F           0.21044957340100     -0.49564286617636     -3.67937360819440
  F           2.35668166064784     -0.66186006021766     -3.53207191846210
  F           1.11071256166869     -1.46193909445254     -1.96894957991078
