19
Coordinates from ORCA-job NEB_reactant E -48.649003749380
  C           2.12317732500476      0.27400658517997     -0.64052640702092
  C           1.21095369395451      0.89565340529005     -1.41001421329584
  N           2.93244094519080      0.84781667245587      0.38110008622392
  H           2.30517210163186     -0.78182121467353     -0.77833170520264
  C           0.39186982496446      0.02925236567280     -2.37596057511101
  C           4.15780191918559      3.39761025804387     -1.00767352046238
  C           3.06911022218859      3.17621651940828     -1.72645884956959
  C           1.68279544068789      3.24992251591295     -1.16179619339217
  O           0.87308282900659      2.15927685586998     -1.60344442333010
  Br          5.88398281180945      3.35926720825455     -1.75227964714933
  H           4.14324257431550      3.63064899642314      0.04638233193753
  H           3.13313879877814      2.93847544551802     -2.77978520096805
  H           1.15807697963210      4.12414650250591     -1.55954477166196
  H           1.70571122654950      3.29949956053776     -0.06704955015750
  O           4.02283941564601      0.35517335368606      0.55331515307197
  O           2.47052766156827      1.76239399075161      1.03803253209765
  F          -0.89580224622912      0.36427347496559     -2.35677971029087
  F           0.82776019569753      0.18787659019452     -3.63144563899905
  F           0.46951828041757     -1.27288908599740     -2.09743969671965
