23
Coordinates from ORCA-job NEB E -40.923038259020
  C           0.29980493518593     -0.02175541159669      0.94805586324121
  C          -1.03536097905034     -0.44934389795631      0.94378395542013
  C           0.56962644146759      1.41007862318857      1.35475377195866
  H           1.01564686755744     -0.70778709417907      1.39347534492006
  C          -1.34473634129401     -1.92004721687588      1.14020687113962
  C           0.68328615039871     -0.10355573720330     -0.93854413525238
  C          -0.33620993460329      0.69612876270034     -1.45776012310447
  C          -1.69481538016426      0.29374001497449     -1.26578939050941
  O          -1.93528527952782      0.27305369571504      0.32199131959020
  C           2.11756978533505      0.31037771759804     -1.12394867551095
  H           0.54840871203235     -1.17649048658423     -1.03132753361051
  H          -0.13711944706067      1.74461452137422     -1.63132351180283
  H          -1.92495562211487     -0.73360030821542     -1.53914428313958
  H          -2.45339141448145      0.98790578783716     -1.60850830177093
  F           1.91330753547937      1.67026722018847      1.41334505395189
  H           0.18488709549433      1.56782728484769      2.36973031741751
  H           0.11977798072762      2.13877691893416      0.67673836904474
  F          -0.87111711807765     -2.69686386795622      0.11507196917524
  F          -0.74072429772551     -2.39555081605909      2.25489703922131
  H          -2.42563051170343     -2.10459033679575      1.21911348084985
  H           2.23788634399474      1.38747928904740     -1.05327104494023
  H           2.44529733335060     -0.00933060443434     -2.11255751173749
  H           2.76384714477958     -0.16133405854927     -0.38898884455165
