18
Coordinates from ORCA-job NEB E -32.613209649460
  C           0.50490449865022      0.29398752944935      0.85952896858764
  C          -0.66925748075909     -0.42444059238913      1.48712198316011
  N           0.07554657398558      1.74271110487515      0.73956434369152
  H           1.45018585085527      0.40521773253292      1.39169507406965
  N          -0.53365323958873     -2.04135063340562      1.90137246648564
  C           0.59308505661266     -0.42520960856074     -0.51540030081827
  C           0.78764322992189      0.59605028164869     -1.57471079617794
  C          -0.27144983383954      0.77817505134643     -2.35121546422017
  O          -1.74090067560196      0.09059562971643      1.50680368878242
  H           1.25503875981063     -1.29023554628674     -0.45668477248194
  H          -0.40211532261878     -0.90779577184976     -0.65240958732658
  H           1.85710447458146      0.74910891853490     -1.65599762958984
  H          -1.09298405959855      0.09298671255989     -2.17934319271092
  H          -0.44359535863584      1.54237112597001     -3.08169626365925
  H          -0.93236134469722      1.75799535648473      0.64543001578035
  H           0.52063296593365      2.08993709047986     -0.10665850041099
  O          -0.23621721008273     -2.76415295567897      0.99488115286718
  O          -0.72160688492892     -2.28595142542741      3.04771881397140
