18
Coordinates from ORCA-job NEB_product E -32.660976271140
  C           2.79526162306153     -0.50795822402033     -0.77463957639287
  C           1.48458404391927     -1.13221065902918     -0.42511980018472
  N           2.72016857314448      0.91537089360874     -0.56513936770876
  H           3.57535191874768     -0.91860490490593     -0.12120773044919
  N           1.57471264552457     -2.65581297892111     -0.19328887508080
  C           3.12865290601828     -0.95824144962058     -2.23806508740623
  C           2.00782114747479     -0.65857581343217     -3.18376604843568
  C           1.28238821121522     -1.58426006543201     -3.78244044788334
  O           0.40739644876034     -0.64275578374717     -0.36180131635444
  H           4.02974175822867     -0.41759908449721     -2.53861877852287
  H           3.35428715914610     -2.02489747104087     -2.23677097623970
  H           1.80026981604678      0.39008265765364     -3.35301659652224
  H           1.46910354206328     -2.63576662131317     -3.63482228500395
  H           0.47786978326196     -1.33327166232671     -4.45082106688221
  H           3.50241127265717      1.39445455910456     -0.99279594127948
  H           1.85294971458907      1.29715576456877     -0.92417145295039
  O           0.52311810827671     -3.22776268130912     -0.09886874512774
  O           2.67781132786411     -3.14714647534015     -0.13034590757538
