14
Coordinates from ORCA-job NEB E -29.660590926230
  C           1.15758761720241     -0.40125432178358      0.32751505995670
  C           0.14863057708341     -1.44413332091154      0.47570911327130
  Cl          2.71982036652998     -1.03591774962175     -0.21425597572946
  H           1.33165915759067      0.12124857817565      1.27512934345048
  Br          0.37642817534079     -3.17015085585613     -0.23136970906216
  C           0.60932303142929      0.67295302252401     -0.68147092471829
  C          -0.76045339992956      0.96009409391056     -0.43604370863730
  C          -1.63742431654673      0.09742416816084      0.37306790928733
  O          -1.10502532324828     -1.14972522425377      0.79095693600001
  I           1.90592714356409      2.57499251177310     -0.48233249238595
  H           0.91472540871572      0.37414314783025     -1.67764797281975
  H          -1.12547930154518      1.96579253288862     -0.56384367407282
  H          -2.51926228037790     -0.20026204812125     -0.21057120092080
  H          -2.01645685580872      0.63479546528497      1.25515729638071
