14
Coordinates from ORCA-job NEB_product E -29.721842839820
  C           1.76786525862218      2.00697037059197     -0.52257441418327
  C           3.16708406658134      2.22541421572202     -1.03083192211379
  Cl          1.81920676487093      2.26088362402381      1.25281550347410
  H           1.48507679560328      0.95881827320117     -0.67656989134959
  Br          4.40452787659763      0.88516386058620     -0.35007765261469
  C           0.75117714105289      2.91259413094040     -1.20156476117128
  C          -0.64412568030110      2.57391708375667     -0.80945569149039
  C          -1.61111208879891      2.35515360841570     -1.68175841125936
  O           3.55203430897799      3.07000509017266     -1.75837886705218
  I           1.12932858887405      5.00567977725254     -0.72343579813710
  H           0.88419572191715      2.84290774556372     -2.28325632361676
  H          -0.82896555282273      2.53360516517116      0.25485892324743
  H          -1.44280115375927      2.40708145106711     -2.74519982392379
  H          -2.61159204741543      2.11950560353488     -1.36507086980932
