17
Coordinates from ORCA-job NEB_reactant E -29.588664470310
  C           2.30077284780997      0.22424238315656      0.63176094216312
  C           1.47326463512540      0.10995429417693      1.67338867851551
  I           3.49975935448741     -1.22110332886238     -0.30646637951537
  H           2.38461826079539      1.17665855662116      0.13794619870803
  O           0.74522137562175      1.19574288839247      2.06623028338296
  C           3.71782741372140     -0.59687951051556      3.73139274145733
  C           3.38760261214424     -1.70363695630345      3.06921907865780
  C           1.98435552423393     -2.03396544150662      2.65592067297102
  O           1.14481327008949     -0.90006317582039      2.48583234862225
  N           5.00751442459443     -0.20608868186101      4.02263668099879
  H           2.96126352207716      0.12295649612642      4.01476816818554
  H           4.13993977875900     -2.42460074441762      2.78680145428115
  H           1.46864983374313     -2.60299237981571      3.43974534580960
  H           1.98763038738223     -2.64873321899977      1.74883668210522
  H           0.85245121523476      1.92643282256291      1.44695013320185
  H           5.70420414548184     -0.93018953196375      3.93040335352450
  H           5.12271139869848      0.36926552902982      4.84103361693070
