20
Coordinates from ORCA-job NEB E -37.114209758180
  C          -1.41430987768365     -2.23895204029618      0.09526810515964
  C          -0.71564985331830     -1.07031931142629      0.52554692366013
  C          -1.35011567856398     -3.49495963873713      0.91409993411343
  H          -1.50404511117301     -2.38973019713607     -0.97397894773843
  H          -1.20785076999765     -0.19339587787305      0.94078131171701
  C           0.57041789494793      2.28780966072881     -0.35753944208015
  C           1.24773135122336      1.14533252739347     -0.37223247395753
  C           1.28372192985911      0.20024621829105      0.78713948512412
  O           0.62901445029789     -1.01597045578705      0.45072360915885
  C           0.44370061617482      3.23504127378555     -1.49100596832368
  H           0.05313934319292      2.62114571037026      0.53205925937988
  H           1.75418236568095      0.80614255640852     -1.26338676470463
  H           0.81613990642172      0.64915366493243      1.67194492916914
  H           2.31547596524085     -0.08204055437671      1.01488727724154
  H          -1.49907839777488     -3.26901112087980      1.96885157938450
  H          -0.38200426516701     -4.00280550106166      0.81739926845606
  H          -2.12225107212145     -4.18895595684060      0.58876426039504
  Cl          1.07334651588954      4.83880231539212     -0.99870057614572
  Cl          1.30063011085425      2.73035609170747     -2.94983243952836
  Cl         -1.29219542398341      3.43211063540486     -1.90078933048085
