20
Coordinates from ORCA-job NEB_product E -37.247035135930
  C           2.01526446461479      2.00430238597545     -0.70789586403617
  C           0.58478118804758      2.11760285390259     -1.19677373273060
  C           1.99134528462450      0.91735562045102      0.37501043240637
  H           2.66894858521441      1.68517781797590     -1.52266463284581
  H           0.36276901803900      1.50080859378178     -2.08764943782278
  C           2.48963883129880      3.35779783870581     -0.14241930319886
  C           3.61888583260191      3.22162347917932      0.83905270031149
  C           3.54237011495582      3.62071085555119      2.09381870171244
  O          -0.27399904718145      2.73825115869460     -0.63888194095033
  C           2.91742049426348      4.28343939533668     -1.28217481417079
  H           1.63248544815247      3.82775639082606      0.35471335208327
  H           4.52291975685110      2.77488124994780      0.45072091774644
  H           2.65033309783037      4.07385485657461      2.49354916258505
  H           4.36896319664503      3.51012594568325      2.77382864795910
  H           1.37664826007535      1.23863084280047      1.21207204821744
  H           2.99618944441108      0.71560959923885      0.73418906215678
  H           1.57499981132137     -0.00202595840101     -0.03083782235367
  Cl          3.29303087664269      5.89892937871580     -0.64469176494225
  Cl          4.36458556352119      3.67116330123596     -2.11675834612334
  Cl          1.62721977807051      4.44740439382390     -2.50140736600377
