18
Coordinates from ORCA-job NEB E -42.584862231800
  C           0.45853934764280     -0.82670284837453     -0.96210666618649
  C          -0.61811475035167      0.07352204926875     -1.06034129043847
  Cl          0.04489799723982     -2.51812427985048     -1.12874598687767
  H           1.38617271663086     -0.59234433948016     -1.47037897475014
  C          -0.31967129587051      1.48671576219700     -1.54784611005870
  C           0.86649434532015     -0.72810738064733      0.97460816919887
  C          -0.22225161654002     -0.08149186126346      1.58867391318078
  C          -1.50407996808169     -0.55733931902830      1.27452411483689
  O          -1.68144809129754     -0.10738079050072     -0.38699045926429
  C           2.15259365261344     -0.12249255715691      1.05575544786915
  H           0.91001870334700     -1.80985145931032      1.05933588190436
  H          -0.11259130235373      0.95915726697986      1.86371840006669
  H          -2.36361234956803     -0.04599887950180      1.68379944420394
  H          -1.63411889527722     -1.62773367685297      1.16379157487370
  Cl          0.46823906437413      1.41925320610006     -3.13368427237946
  Cl         -1.81642333363637      2.40979072773328     -1.67071794113802
  Cl          0.78677868206547      2.33080785742981     -0.41088119675569
  N           3.19857709374311      0.33832052225820      1.10748595171455
