18
Coordinates from ORCA-job NEB_product E -42.628581230050
  C           2.41651097127704      0.34485157363616      1.66371444333817
  C           1.74486175464514      1.68190992383337      1.42506101201792
  Cl          1.22856952566047     -0.84426830105779      1.03233510471412
  H           3.32188480409209      0.24486114450948      1.06193408167343
  C           2.25898900073055      2.42329111060307      0.17826193802747
  C           2.71655975949258      0.05706926476814      3.14637548919765
  C           1.47688234038961     -0.09428169290738      3.99408053023816
  C           1.19450327978252     -1.20218308787873      4.65037406244641
  O           0.89771970649238      2.15898579589621      2.11600913056520
  C           3.52024419357300      1.14482669979635      3.66809552705158
  H           3.30862569126583     -0.86486327599342      3.20185237198130
  H           0.83135394303660      0.76968001355414      4.03188613694358
  H           0.30410921039994     -1.28726252991287      5.24806259365595
  H           1.83373335666979     -2.07006619250885      4.61860197355053
  Cl          2.31300899220337      1.36545820208338     -1.23891597375355
  Cl          1.26561922771984      3.83582706996780     -0.16419843291856
  Cl          3.91879017797635      2.93760592799833      0.61062206838035
  N           4.14603406459292      1.99935835361259      4.09434794289029
