22
Coordinates from ORCA-job NEB E -52.431544946750
  C           0.49158061235620     -0.00013958093361      0.82759971411937
  C          -0.76821423013053     -0.63554924395158      0.90598253402750
  C           0.56834604308002      1.44247076871770      1.28574707200354
  H           1.34083298961915     -0.55408009832560      1.22381217629806
  C          -0.85110241702107     -2.12638227232266      1.13346512415371
  C           0.71509340734740      0.04846931013851     -1.03912578748302
  C          -0.44512824254123      0.66801367560459     -1.52692272528201
  C          -1.70114242464498      0.06575309401439     -1.22824660281136
  O          -1.80166722471907     -0.05542612721643      0.37260287401551
  N           1.99255243786888      0.73671831887436     -1.30118530672946
  H           0.86151873531168     -1.02265544792666     -1.16043988389157
  H          -0.39648440914948      1.72625794491673     -1.73844972287324
  H          -1.81077003309359     -0.98181772682537     -1.50528010089976
  H          -2.57635722659126      0.65190481966566     -1.48120682923987
  F           1.79648892205151      1.94951265145543      1.12662326387037
  F          -0.28135935622864      2.27635921619705      0.68942187264399
  F           0.30663081696183      1.50388567234435      2.60259657784419
  F           0.37772935173143     -2.67405733472625      1.36450321002151
  H          -1.27461168018318     -2.62480082400430      0.24946488483767
  H          -1.48278381231942     -2.34679949592478      2.00159098747997
  O           2.98509061768982      0.07583737004894     -1.12168435375824
  O           1.95375712260453      1.87652531017953     -1.68086897834685
