22
Coordinates from ORCA-job NEB_reactant E -52.470912605300
  C           1.63613502579030      0.02179892109667     -0.30760811704574
  C           1.44768839598397     -1.06791922228345     -1.05852228392174
  C           1.76383627806764      1.45510375127448     -0.68408036164489
  H           1.67787521136896     -0.12183733450510      0.76113212077100
  C           1.30297048274699     -2.41859117601494     -0.38693682270367
  C           3.68742301524460      0.86837733320978     -4.23476724440013
  C           3.11631747302704     -0.08951379679817     -3.51668689915291
  C           1.64455572090547     -0.27788107333577     -3.35077102052073
  O           1.33005634200482     -1.26487638825509     -2.38340133214311
  N           5.11692777659904      0.94308650496716     -4.34759758781626
  H           3.16778981916376      1.65132790757717     -4.76403641782754
  H           3.75402657973109     -0.81206198335401     -3.02008020475192
  H           1.23178657362421     -0.68882781245168     -4.28024768372152
  H           1.13527153580140      0.66983648493860     -3.15805648012856
  F           2.84579841948666      1.73920907178781     -1.44343798963262
  F           0.70730798771776      1.93291068387934     -1.38340155147549
  F           1.86280965538315      2.22338112349301      0.40257482458125
  F           1.19356136312413     -2.31696546536304      0.96550021094012
  H           2.18117164256320     -3.03882122894641     -0.60043435396585
  H           0.40264269694641     -2.91831157580648     -0.75976402370790
  O           5.77999298075147      0.09333335175498     -3.79603942431535
  O           5.55885502396790      1.86004192313512     -5.00143735741642
