22
Coordinates from ORCA-job NEB_product E -52.471627769390
  C           2.80907957882908     -0.47611508436327     -1.76286784963605
  C           1.62422997004808     -1.46380087951789     -1.76383620354793
  C           2.71350411921154      0.58453834167724     -0.66869092388992
  H           3.72170531551706     -1.05863881946180     -1.55142106930034
  C           1.14044488682903     -1.89639820048933     -0.39526422386408
  C           2.97721589056212      0.14944905184041     -3.15870778075549
  C           2.12503540591466      1.36148917044580     -3.40789397869622
  C           0.95446546458700      1.29551669764265     -4.01292647739598
  O           1.16178040463931     -1.87445217622172     -2.78605014237449
  N           4.42402284833408      0.46677610207049     -3.41150283569178
  H           2.71388736844492     -0.63192477530421     -3.88692702162756
  H           2.52588581394951      2.30174823386748     -3.05756947879422
  H           0.54874089384939      0.36319203260291     -4.36980829561101
  H           0.35296918039795      2.17384690578380     -4.16263156012703
  F           3.60283006247068      1.56350664102006     -0.84407347800080
  F           1.50600771467250      1.16254699842192     -0.60090378406573
  F           2.95056198404054      0.06617352896363      0.54634440369517
  F           0.24441966286889     -2.91368948633533     -0.51735300566824
  H           0.62634399583321     -1.06879834116727      0.10948555577847
  H           1.96783236626892     -2.25464962590791      0.22802586287060
  O           5.24241265621144     -0.21068609512572     -2.84039776659242
  O           4.65202441652008      1.34806977955805     -4.19172994670495
