21
Coordinates from ORCA-job NEB E -32.898452241020
  C           0.54790999323434      0.90977255402507     -0.52101093251598
  C          -0.55859753881190      0.45256189160120      0.20824301963139
  I           0.16323866167028      2.02325510965285     -2.29139717872184
  H           1.39674835414928      1.31973107934701      0.01191912467456
  C          -0.39866074931414      0.20574934653819      1.69049052168975
  C           1.14205371832069     -0.86216320568263     -1.12596963211180
  C           0.02032878625994     -1.35395964969993     -1.81231324896242
  C          -1.15193809035280     -1.58611785848580     -1.06683025563948
  O          -1.54831074912560     -0.06096300430657     -0.43303269045534
  C           2.33076672264615     -0.57448106281612     -1.85296663358929
  H           1.35202376198937     -1.26943201517241     -0.13815469817236
  H          -0.06712599572429     -1.13548042706055     -2.86710135888983
  H          -1.05769438611779     -2.12793987763763     -0.13086545847284
  H          -2.05205704402594     -1.82789655511261     -1.61486860485884
  C          -0.67701512425805      1.49276457071121      2.46934138882601
  H           0.61568839957646     -0.13822048142575      1.91363080557281
  H          -1.11031659127300     -0.56413341388793      1.99537437240948
  H           0.02538684955885      2.27296960389456      2.18487849617509
  H          -0.58155736089590      1.31251942088811      3.53721396532756
  H          -1.68483672173833      1.84550173523999      2.26498739650611
  N           3.29396510423237     -0.33403776061025     -2.42156839842272
