21
Coordinates from ORCA-job NEB_reactant E -32.935945225200
  C           2.03976302360868     -0.85347537068936      0.25371337351523
  C           1.65143024573032     -1.87442897304242      1.01099514065114
  I           1.84902734530966     -0.46022678991995     -1.81636698559318
  H           2.53960044187574     -0.03232204095578      0.73558099487298
  C           1.90882586397266     -1.80084901481316      2.50219233240475
  C           2.96238479457047     -4.05431616365765     -1.04348527009523
  C           1.72873768142197     -3.78705682804723     -1.46893359991269
  C           0.60458090921402     -3.38275735116055     -0.56730886483365
  O           1.00440646831158     -3.03382516200794      0.73878134808672
  C           3.99625785290450     -4.44370602665717     -1.91540840171953
  H           3.23538416337287     -3.97960434858732      0.00184592969130
  H           1.47270193988091     -3.87229970003235     -2.51558219745213
  H          -0.05954974898521     -4.24591695450331     -0.42630919857645
  H           0.01109386328442     -2.58539685218745     -1.02882146237528
  C           0.70333613653091     -1.20077486198390      3.22428747868086
  H           2.79800063528399     -1.20381342782188      2.70238081498848
  H           2.07674441187888     -2.81650224115995      2.86332386175947
  H           0.52124150163720     -0.18474611757839      2.88193804562135
  H           0.88239170954464     -1.17955510926965      4.29613793538711
  H          -0.18552852316867     -1.79645388978559      3.03280578037176
  N           4.85056928382046     -4.75967277613902     -2.61166705547300
