19
Coordinates from ORCA-job NEB E -29.598111749330
  C           0.90555329304612      1.27775175586683     -1.28795558523292
  C          -0.04578162110131      0.39123005961901     -1.00763843302261
  C           2.31400363912989      1.15872347702953     -0.79606249372785
  H           0.65397016437276      2.13663323976882     -1.89176489135807
  N          -1.39308626192682      0.46616455975006     -1.48615279292257
  C          -0.54546363852805     -0.98462092445910      2.63289547465332
  C          -1.30603135999217     -0.99161715521583      1.55527900055464
  C          -0.80230109604402     -1.51030812990076      0.23451211173045
  O           0.26043595284726     -0.71200752892006     -0.25567173363300
  F          -0.97222597837424     -0.48177918754472      3.80349564120033
  H           0.46293950853979     -1.36650733642581      2.69267039646745
  H          -2.29606986663242     -0.56424266798591      1.59026023093805
  H          -1.61587923280634     -1.53387473361512     -0.49363321067129
  H          -0.37459187168926     -2.51043270856041      0.35246526448250
  H           3.00117907935621      1.64571351628008     -1.48434985892010
  H           2.58204103648175      0.11100752656040     -0.69707503349168
  H           2.42288360176352      1.63677273634647      0.17807612538768
  H          -1.40271762418583      0.52706955708107     -2.49907979319162
  H          -1.84885772425686      1.30432394432545     -1.14027041924269
