19
Coordinates from ORCA-job NEB_product E -29.642512456850
  C           1.65649441828740     -1.28714368073584      1.00072828707491
  C           0.94345298332532      0.02364527206443      1.32445872335897
  C           1.23950310134759     -1.80293530936218     -0.37333285860854
  H           2.74047730087205     -1.13154686081633      1.02471197797707
  N           1.63250135736714      0.83115816799318      2.16651515131459
  C           1.31740434992109     -2.29804435283507      2.11794277716038
  C          -0.10961667533328     -2.74770050352703      2.07795285902122
  C          -1.06712620329544     -2.19950655459365      2.79977612216843
  O          -0.15032158633876      0.31543065316591      0.90441993701838
  F           2.15416840513461     -3.39339112941918      1.97116931123815
  H           1.56481313706163     -1.86702982773712      3.09820492422959
  H          -0.30933362831680     -3.56108251727238      1.39627092362338
  H          -0.87425409667917     -1.38805319418687      3.48191771839709
  H          -2.08849159427049     -2.52787036171716      2.72420310588714
  H           0.15641359314579     -1.77644711232725     -0.46036161897187
  H           1.59453403159828     -2.82014376997804     -0.51787193872760
  H           1.66122345268535     -1.17030603779773     -1.15068243297787
  H           1.22635526577164      1.71456721189737      2.42791425852967
  H           2.55840238771606      0.61529990718496      2.48906277228689
