18
Coordinates from ORCA-job NEB E -33.510060356140
  C          -0.27123769164018      1.03936191293481     -0.30519607467007
  C          -1.02532534916167      0.49375301725389      0.73366884880881
  C          -0.68359299625514      0.72331378136732     -1.71728515120267
  H           0.12165597490475      2.04330252217761     -0.18354122886120
  O          -0.98615311204549      1.05629705013074      1.96932610008547
  C           1.39452178071906     -0.21026388343428     -0.05355658795747
  C           1.00530517361923     -1.20624763095639      0.82438599841122
  C          -0.17977130759834     -1.90219046209665      0.53297868735378
  O          -1.45465048734970     -0.70095481529005      0.68147540394752
  I           2.99742521567537      1.05781376529966      0.51482390044546
  H           1.41823596355143     -0.39795910673749     -1.11399101618119
  H           1.29142824340955     -1.12457532429157      1.86474396802997
  H          -0.53386597044032     -2.62762421285605      1.25052731086203
  H          -0.37243941645005     -2.17375588143591     -0.49712562069636
  F           0.34869464649354      0.91672419365330     -2.60186675103125
  H          -1.48639291519421      1.40018630755933     -2.03685192483492
  H          -1.01739444706080     -0.31282843246158     -1.82220494567071
  H          -0.56644330517702      1.92564719918331      1.95968908316156
