18
Coordinates from ORCA-job NEB_reactant E -33.552106448740
  C           1.49053286408639     -0.09762512950425     -0.28855286231037
  C           2.34910715966205     -1.06989096249256      0.03176707576436
  C           0.04147428329856     -0.33652568858628     -0.53708290256238
  H           1.85625320779519      0.90418245126161     -0.44728164104803
  O           3.67698313416508     -0.86344632355439      0.23450988450557
  C           4.51487986819326     -2.95451248199561      2.50669157863503
  C           3.26583279093085     -3.04771708753565      2.09879192201972
  C           2.89243268980952     -3.28719862923149      0.66488821358210
  O           1.93867132046948     -2.34218282314346      0.20511257038568
  I           5.04756046725560     -2.61991666426764      4.51090696995635
  H           5.36268381436369     -3.05258912689175      1.85044273745974
  H           2.43288364527277     -2.92814424815330      2.77702846016536
  H           2.37852913006255     -4.24894717008603      0.57006754783620
  H           3.78156250904452     -3.28261459602558      0.02562452548460
  F          -0.25912302844923     -0.18199975405515     -1.88130196081489
  H          -0.58593569598503      0.39134982581948     -0.01051187743231
  H          -0.24139217073678     -1.35707367061072     -0.27018951825152
  H           3.89376401076151      0.05815207905275      0.05568927662481
