19
Coordinates from ORCA-job NEB E -35.687005365460
  C           0.04059398055857     -0.88089918835751     -0.90522574910333
  C          -1.31333819304417     -0.63964595562215     -1.15577208266650
  N           0.35985839820028     -1.85577903694941      0.12512386313309
  H           0.71345684535689     -0.99218422060306     -1.74956000260004
  I          -1.78048026707580      0.05607963888426     -3.15044234794110
  C           0.55755775190966      0.76760798396318      0.02720748807204
  C          -0.41816082049384      0.81208133253975      1.02177476545643
  C          -1.78335708356165      0.93911141769062      0.64598313418528
  O          -2.15198055227542     -0.39709733999206     -0.24702666865952
  C           2.00306302203848      0.59498975516379      0.39968034192292
  H           0.40778738052175      1.40033255394947     -0.84402363013354
  H          -0.19599968773640      0.38941072742915      1.99009712426930
  H          -2.02205909755012      1.70257728822158     -0.09128385262848
  H          -2.51565719030380      0.87272360115497      1.44006289749686
  O           1.29110028103566     -2.58880057155313     -0.12359269632360
  O          -0.31067373822856     -1.88457902046769      1.12759062758331
  H           2.58470658907852      0.19997967653109     -0.42970559855947
  H           2.11706763920371     -0.06387194773693      1.25715915708921
  H           2.41651474236622      1.56796330575407      0.66195322940715
