19
Coordinates from ORCA-job NEB_reactant E -35.713033792220
  C           2.18417913263148      0.69535812297198     -0.11134332139868
  C           1.44630817663296      1.79163441437894     -0.36282923778787
  N           2.39153443663928      0.07343680999970      1.14374264046885
  H           2.71412114419079      0.20732669300306     -0.91395970320932
  I           1.20810572755257      2.34116337772952     -2.39821169912837
  C           3.53768119404011      3.36834352747402      1.26465927857888
  C           2.57629779789385      3.02565687745700      2.10657111460349
  C           1.12354294683072      2.86106310828593      1.76905804817565
  O           0.85479393786972      2.69236979222364      0.37502440677090
  C           4.97223396998580      3.50197535132741      1.63912772701282
  H           3.31660957669936      3.57105405072623      0.22300867558246
  H           2.80080818688501      2.83026593646957      3.14533815923040
  H           0.56013983675882      3.76327553674284      2.03015587434200
  H           0.71538616260285      2.01152659382815      2.33018747876819
  O           3.43350118600098     -0.53283508459024      1.28174713940767
  O           1.51229171147398      0.13879969434369      1.98556151339471
  H           5.56967544558721      2.78165287876811      1.08072719444623
  H           5.11694723291315      3.32840407849720      2.70181870351364
  H           5.33414219681136      4.49732824036327      1.38561600722837
