14
Coordinates from ORCA-job NEB E -22.321459344160
  C           1.12550027851745      0.13727064582595     -0.89587862284069
  C           0.70981578975366      1.31971498794731     -0.28491064630616
  H           0.62173273090511     -0.15771047670444     -1.80662981547902
  H           2.18566710809895     -0.08094302603627     -0.89813909295984
  H           1.36714846308029      1.81229369558397      0.43675705243665
  C           0.31150738424477     -1.11645628848776      0.25408392236757
  C          -1.03737250947841     -0.75662343111837      0.24671222415642
  C          -1.35297807458686      0.55672288791347      0.71293218766972
  O          -0.56414730373710      1.58868380229909     -0.22059595386797
  Br          0.76714502464081     -2.83527416462172     -0.47646872958298
  H           0.90209240862135     -0.94568442749662      1.14644407850277
  H          -1.68103823883184     -1.19894744381267     -0.49993382730926
  H          -0.96952657105110      0.81584799141726      1.69812240089669
  H          -2.38554649017708      0.86110524729080      0.58750482231611
