14
Coordinates from ORCA-job NEB_product E -22.365662357430
  C           1.53662180861102     -1.97460883353030      0.87087451602144
  C           1.31438765753194     -0.48500050423710      0.83468523840841
  H           1.13714192860263     -2.42754603297605     -0.03931490005728
  H           2.61813459182714     -2.14351882761773      0.89427767432539
  H           1.52298669441309      0.01618472470972      1.80106651121490
  C           0.89288752096185     -2.58073843641256      2.11084546465805
  C          -0.58963624677453     -2.45723996889125      2.09916750917529
  C          -1.28961634483926     -1.96081113040770      3.10279338778029
  O           0.95811255544292      0.13390541700620     -0.12376557236611
  Br          1.36568301719762     -4.51571685150240      2.18437812814715
  H           1.31909155458181     -2.16069251111550      3.02477446550440
  H          -1.07691247098937     -2.81741947706450      1.20324192244241
  H          -0.81989615956861     -1.60903593414592      4.00718571302781
  H          -2.36158610699823     -1.88366163381491      3.05948994171785
