23
Coordinates from ORCA-job NEB_product E -32.600791214520
  C           0.99346511857683      0.43375747441966     -1.32981665988729
  C           1.44587894166711     -0.84494557396264     -0.60825403349258
  O           2.04074830460866      1.36554051975246     -1.44003418656479
  H           0.13866475824369      0.88357138588716     -0.79634468194912
  C           0.47638943635701     -1.37695500700570      0.41715705000904
  C           0.56776006892832      0.06345017851263     -2.77241598426941
  C          -0.26398286607614     -1.19293351865400     -2.78176113945261
  C           0.13692498276998     -2.35160214706300     -3.26915220962013
  O           2.50556590298836     -1.36323343660654     -0.83902287051094
  N          -0.12042207195429      1.19838608956344     -3.36447313164889
  H           1.49649443222192     -0.09352508701410     -3.32807246237141
  H          -1.26869021534364     -1.07764496648275     -2.38856120697787
  H           1.12935226857397     -2.47907854459370     -3.66715751389176
  H          -0.49960017101486     -3.22060511776954     -3.27764184869139
  C           2.42705961940290      1.93317098943227     -0.21528629831902
  H           1.57927889171899      2.42483529060669      0.28059506581720
  H           3.18639538789736      2.67550493683502     -0.45109676674606
  H           2.85238447628944      1.18556639218869      0.46509942689772
  H           0.80645621906962     -2.34893518499182      0.77364480932917
  H          -0.51930866198892     -1.45718446021703     -0.01044357574406
  H           0.43218293538212     -0.68319232504110      1.25556069134014
  H          -1.03562432137661      1.32190174106368     -2.94314390452393
  H          -0.24517343694181      1.05395037114018     -4.35927856873199
