23
Coordinates from ORCA-job NEB_product E -36.571938277490
  C           2.93107235376125     -1.17055404278541      0.53048676730273
  C           2.88399905744494     -0.08381132799226      1.56323801379435
  C           1.67071091025356     -1.04773241038133     -0.34072921287532
  H           3.80398575806239     -1.06143902104037     -0.11511748790561
  Cl          4.33701883491520      0.92305589808093      1.59285800805624
  C           2.97654970849221     -2.53910803428990      1.25555610324826
  C           2.93438221215065     -3.65471488561262      0.25330539191342
  C           2.07569985613168     -4.65464622907885      0.30741229395885
  O           1.99783728352038      0.14414979450744      2.31718384496448
  C           4.20573882026489     -2.66553917833650      2.17558623639986
  H           2.08707575508262     -2.60187287075761      1.89297214163143
  H           3.66508997497896     -3.60476476710400     -0.54071718588567
  H           1.32945436566385     -4.72312242794198      1.08267831615712
  H           2.08215612791535     -5.44891661975019     -0.41850328906095
  F           1.84352042842623     -1.72518487822758     -1.51635782724755
  H           1.47750519845868     -0.00341315538010     -0.60856089917016
  H           0.79512513081561     -1.47469462278745      0.15613021150856
  C           5.55484755929811     -2.57301707320864      1.47177108769080
  H           4.13614154393664     -3.63308196532093      2.67787503448285
  H           4.14767583693210     -1.89119694302656      2.94443632163912
  H           5.64367116320915     -3.33056259989846      0.69808643623119
  H           6.35080388603665     -2.73552177798213      2.19471705421208
  H           5.70563823424891     -1.59331086168549      1.02689263895391
