19
Coordinates from ORCA-job P E -25.408041865550
  C          -1.40210788315250      0.37708753826906     -2.37945693466342
  C          -0.18968455138755     -1.73945353714545     -1.09709055451965
  C          -1.57628128392277     -1.92064580829192     -1.62136017465918
  C          -2.15335313549446     -0.91648330981769     -2.26125348396530
  C          -0.85398324918976      0.73353143461129     -0.98360775557905
  C          -0.01175792629104     -0.39348852756993     -0.36194269800626
  H          -2.06387884174158     -2.87300457115163     -1.48058961131881
  H          -3.14713353334882     -0.96762446637765     -2.67856860859000
  O          -2.17011023569124      1.42485257209367     -2.92269836757210
  H           0.09169252586461     -2.55966444028516     -0.43552275199284
  H          -0.55768496865295      0.25940989216079     -3.06917533071511
  H           0.50912905400140     -1.72758765560338     -1.93917056766790
  H          -1.70832089135145      0.95519954898587     -0.33808120498257
  H          -0.34656047164637     -0.53155423789915      0.68349303441261
  H          -0.24632356703738      1.63499356281238     -1.06653351367220
  N           1.39885642775071     -0.03446838481762     -0.43789978486100
  H          -2.93962642738315      1.56537871110175     -2.35906932119225
  H           1.58573554311370      0.79925584252333      0.10854401293237
  H           1.97390341556063     -0.78392416359855     -0.06821638338734
