19
Coordinates from ORCA-job R E -25.339806638200
  C          -1.09778428588699     -0.11165394679605     -2.88113183552426
  C          -0.12241353618787     -2.88727767622726     -2.16642455799405
  C          -1.23570834287549     -2.29999585221431     -1.73610608834946
  C          -1.65150115005689     -0.93557588177628     -1.98784133740825
  C          -1.08828412011056      1.76227265219166      0.29410711838252
  C          -0.33401339718179      0.67507080963777      0.40090165829206
  H          -1.90475510605108     -2.86531537958404     -1.09926209857842
  H          -2.47566869666146     -0.56576740297891     -1.38912262920413
  O          -1.45217862716135      1.17391964784789     -3.08272106603928
  H           0.10186184339403     -3.91062590019102     -1.91946422514329
  H          -0.30008187030613     -0.41255810513236     -3.54441706915385
  H           0.59908855111597     -2.37627037626703     -2.78064091542282
  H          -1.94959941103518      1.90907601611964      0.91916575056308
  H          -0.57252387536003     -0.10449302773343      1.11168268810839
  H          -0.85406231886944      2.54470160765509     -0.40816093651997
  N           0.84654150093855      0.46017033190729     -0.28154367692888
  H          -2.13123147768904      1.42954562751633     -2.44209552416017
  H           0.99263924476299      1.07520087037236     -1.06967941254560
  H           1.06517507522176     -0.50170401434735     -0.48884584237363
