19
Coordinates from ORCA-job TS E -25.320013739880
  C          -0.75681532584631      0.63259094298588     -1.24366310662555
  C           0.55805869691196     -1.62961040162182     -0.10521329338711
  C          -0.77858491308518     -1.61370164482726     -0.33982898252276
  C          -1.43103493126621     -0.52651504311701     -0.94427546087899
  C          -0.10229326774245      1.19912139430231      0.73815314779084
  C           0.75389408002021      0.27496463130762      1.27893499486614
  H          -1.40013294671660     -2.38207459732215      0.10065172149859
  H          -2.51385230922350     -0.50314887855755     -0.92831597517235
  O          -1.38540245737178      1.74270622152485     -1.71930018853554
  H           0.99988368257522     -2.44006694002387      0.45288942846447
  H           0.27155354265724      0.62149518856978     -1.56905149550212
  H           1.23848789456690     -1.06134219873195     -0.71224171603830
  H          -1.10328067369999      1.26402727519540      1.12466057295651
  H           0.41585444824686     -0.42033727649264      2.02993933705351
  H           0.30264530619001      2.10544317962700      0.32056493366024
  N           2.13068917379282      0.44338289717594      1.23321453507128
  H          -2.33136581269012      1.67851405895882     -1.53639317707876
  H           2.45400003256747      1.00938913617780      0.46156855894004
  H           2.67769578011345     -0.39483794513115      1.35770616543985
