29
Coordinates from ORCA-job R E -46.599385777760
  C          -0.99416404717627      0.03170160466173     -2.87390360231279
  C           1.23730297603505     -1.98024140709066     -2.77503100775387
  C           0.08655780554283     -2.05441536809101     -2.11341466395204
  C          -0.93820935324342     -1.03218763947030     -2.07208219350691
  C          -0.89059422129149      2.32076967117409      0.74815807101961
  C          -0.62408658203227      1.02201996132988      0.81051075691617
  H          -0.13337726071966     -2.93649654928107     -1.52815494536727
  H          -1.71299982445371     -1.18452105013646     -1.33199399093297
  C          -2.03601874094294      1.06879279589158     -2.86794879950530
  H           1.94671682050083     -2.78824153013238     -2.75049450494885
  H          -0.24258570419429      0.19376100771073     -3.63579599572929
  H           1.52243171071541     -1.11650654648042     -3.34984990749693
  H          -1.83668527104862      2.71452624553546      1.07852112660386
  H          -1.36592709756025      0.35159375189333      1.22891064065545
  H          -0.18154522304093      3.04126429614398      0.37719371595503
  C           0.62096249587117      0.38249303735169      0.39787769306765
  Br         -3.37376964311616      0.89940767672808     -1.48185613649513
  Br         -1.21042553564862      2.84554806489941     -2.68949593851201
  Br         -2.99093088534557      1.05135062376656     -4.61517046186830
  C           1.52028958268214      0.98830375208028     -0.47937970583559
  C           2.69387032598610      0.35231400323442     -0.83422840427427
  C           2.99894819391262     -0.89592307436449     -0.31615752410363
  C           2.11262885009372     -1.51187955263120      0.55116138249340
  C           0.93120318578976     -0.88409503554685      0.89442315170767
  H           1.29420520742208      1.95935966753270     -0.89361748632676
  H           3.37925384400537      0.83506931406799     -1.51608117173263
  H           3.92256897752788     -1.38533841705006     -0.58752958943641
  H           2.34209262725787     -2.48641816430191      0.95717374941772
  H           0.24104678647139     -1.36833113942509      1.57166574225439
