21
Coordinates from ORCA-job P E -29.211512823310
  C          -1.07258099007204      0.22318074391077     -2.56345482665607
  C          -0.53822426230997     -1.64389078253038     -0.29931628513766
  C          -1.33275294214013     -2.01060053377676     -1.51218153052054
  C          -1.57768748339986     -1.18913073232227     -2.51713973767213
  C          -0.78056535563086      0.71952580898321     -1.14050340467099
  C           0.13298455788259     -0.27415143658096     -0.41811446488513
  H          -1.71540505478061     -3.02156555688862     -1.52679743585043
  H          -2.16208894097621     -1.49022153128074     -3.37241967888286
  O          -2.04709512817559      1.00248948026257     -3.23456190037147
  H          -1.19501789242416     -1.65504365088245      0.57514365487961
  H          -0.13325188640681      0.24276314885871     -3.14838547481141
  H           0.24348930252623     -2.38932273588308     -0.13666625601500
  H          -1.72320575273115      0.80527332626386     -0.59832013583600
  H           0.34340060872532      0.11051617874915      0.59585921223604
  H          -0.30597117664179      1.70432742333782     -1.16899586618484
  O           1.35659447388102     -0.45744999039004     -1.10212389452873
  C          -1.60607615181028      2.26194145351643     -3.66492967966555
  H          -2.40090162395356      2.66706127605202     -4.28899956025354
  H          -0.68557115741946      2.18090234159311     -4.25792877091628
  H          -1.42787914017344      2.94770700369231     -2.82812081730330
  H           1.76241599603077      0.40318876531534     -1.25283314695373
