20
Coordinates from ORCA-job NEB_reactant E -47.946014293000
  C           1.41108342020438     -0.11260659799655      0.12941601727327
  C           0.77380032990976     -1.17136621090260      0.63010328465816
  C           2.30594339641161     -0.12174181091578     -1.03229847756076
  H           1.26774765831257      0.85821355720565      0.58416726922034
  H           0.88921733529141     -2.16407821024805      0.20396694371945
  C           0.28827692950269     -3.44861302447164      4.25617839311652
  C           0.50102921464037     -2.95849404899793      3.04583318916069
  C          -0.54835585580719     -2.25638156491477      2.23588528802990
  O          -0.06007398879649     -1.05311783412399      1.67251144615555
  C           1.29031928964691     -4.16934897039157      5.08374905750409
  H          -0.67825825035251     -3.36451175151388      4.73334701262754
  H           1.47263097498049     -3.04064974491135      2.57811669200050
  H          -1.39679585170875     -1.96606684509858      2.85824933757348
  H          -0.90135714794947     -2.92996506491799      1.44051403924301
  Br          4.06799712333925      0.63352661536377     -0.54199741004694
  Br          2.62408140780149     -1.87628847063695     -1.79738683891792
  Br          1.56651001353684      1.02228033445196     -2.47773348343646
  Cl          1.46444483081676     -3.33007753837942      6.65321100065145
  Cl          0.69501569648231     -5.82850660395665      5.40182401548540
  Cl          2.88734347373756     -4.28780621464367      4.33524322354272
