24
Coordinates from ORCA-job NEB E -32.303427688190
  C           0.21513929608246     -0.10571655337819      0.67754173884170
  C          -0.55611152114783     -0.51659332155900     -0.43023458503045
  O          -0.45047259921735      0.32673450455776      1.79650254879315
  H           1.11142359834415     -0.69350210265533      0.89801419437531
  C           0.06287871770434     -1.45765545939548     -1.44005360610749
  C           0.90579045219508      1.50445461714500     -0.13609119768737
  C          -0.26013179232834      2.22052980321009     -0.40235549732790
  C          -1.14959553566156      1.67516929973428     -1.36414189303869
  O          -1.58220737872659      0.20332821348563     -0.77054954367292
  H           1.57268354553492      1.88141885160315      0.62768720931467
  H           1.43323368631541      1.06131918450233     -0.97181527621210
  H          -0.67693512055611      2.83622134137112      0.38109136884593
  H          -0.71043885364454      1.37728607392992     -2.31304677419980
  H          -2.10912960485924      2.16202039257581     -1.48237690288222
  C           0.34789895533952      0.63939174842539      2.90872172906952
  H           0.90106069936936      1.57407864575446      2.76296663000050
  H           1.06114270724765     -0.16467921179248      3.12702419335660
  H          -0.33323582755090      0.75776617004246      3.74945572652102
  C          -0.08701297602384     -2.91324456711256     -0.99596387546506
  H           1.12583991838685     -1.23088630449847     -1.57023332792286
  H          -0.44460955275496     -1.31819250085416     -2.39607545604203
  H           0.41904849433033     -3.07641590131910     -0.04741680833837
  H           0.34162885786814     -3.58270419648110     -1.73849562992802
  H          -1.13788816624694     -3.16012872729151     -0.87015496526311
