24
Coordinates from ORCA-job NEB_reactant E -32.337180394890
  C           0.94782909431962      0.08104319408323     -0.31648957908617
  C           0.86856455160408     -0.03827204602038     -1.64155895723021
  O           0.34063379518900      1.04747279013488      0.46112285506490
  H           1.52554090940238     -0.65187042518203      0.23700562301613
  C           1.49163846959651     -1.21744040877376     -2.34385452476908
  C           1.87511435442025      2.98045363191386     -1.82796993433404
  C           0.56981586756794      3.01285630372491     -1.64089246477807
  C          -0.39274569465337      1.94622725435884     -2.07700180729516
  O           0.21045495104596      0.75779632070855     -2.53571784677967
  H           2.51742766952334      3.77559081999164     -1.48938257927153
  H           2.35608250079320      2.15530824409739     -2.32651973531992
  H           0.09761963448912      3.84705776663356     -1.14024038921542
  H          -0.97224358801282      2.31113681120525     -2.93443219804694
  H          -1.08738409177110      1.73168294711633     -1.25572267110306
  C           1.11765134433580      1.46735989415994      1.55412118675715
  H           0.48942253233717      2.13215511456183      2.14445953091925
  H           2.01032708929221      2.00937902774344      1.22136136297897
  H           1.42819532296225      0.61485750975881      2.17017443335091
  C           0.45890631564410     -2.31764220490854     -2.58874985890902
  H           2.31593055455608     -1.60891077598112     -1.74760523388300
  H           1.88185611752777     -0.87408199170975     -3.30306147090082
  H           0.06327809254850     -2.68107708861838     -1.64341575114594
  H           0.91104790386224     -3.15050853455336     -3.12211058183276
  H          -0.36406369658024     -1.92867415444514     -3.18211940818649
