24
Coordinates from ORCA-job NEB_product E -32.350095231390
  C           1.88074795980324      0.94214432559650     -0.77129800727173
  C           2.04084661764253     -0.03269096705880     -1.94130178269267
  O           1.18854419203396      0.33097230370625      0.29177782543357
  H           2.90930607885405      1.18921317119748     -0.44683939680209
  C           1.52549039257650     -1.43185704637532     -1.74179870885755
  C           1.22725698590093      2.24690936141593     -1.28647620000638
  C          -0.20279902986251      2.02768428756811     -1.66472880894308
  C          -0.66109804985581      2.11001535483511     -2.89886785446723
  O           2.56671723951585      0.33388746191655     -2.96232767753759
  H           1.29312003095957      3.01180040208283     -0.50832155871810
  H           1.80349330728573      2.57648761848767     -2.15156193149275
  H          -0.86468137414395      1.77043736985642     -0.84790940107479
  H          -0.01455913770339      2.35589820567690     -3.72498023483535
  H          -1.69717568777050      1.93642494717951     -3.13541944929227
  C           1.30528820346045      0.99422577283751      1.52499834798044
  H           0.79175206579200      1.96180646626702      1.52411245073480
  H           2.35749021502813      1.15212403309318      1.79284469535622
  H           0.83867689724641      0.34571880015006      2.26450824242265
  C           0.00520979672882     -1.45461882135847     -1.91714224061691
  H           1.77682676369259     -1.77000370826682     -0.73705887634420
  H           1.99360414040039     -2.07995940308679     -2.48443557375548
  H          -0.46599052230475     -0.84814893450751     -1.15042873926328
  H          -0.35891714132408     -2.47547009848673     -1.83315620091618
  H          -0.26874994395614     -1.06340090272657     -2.89398891904005
