17
Coordinates from ORCA-job NEB E -33.953895641790
  C          -0.00301203332759     -1.39792672012784     -0.42920486793859
  C          -1.36800758050957     -1.21336143676689     -0.35187330896214
  H           0.49447183356880     -1.75393906872505      0.46240798037970
  H           0.42670854345767     -1.74480161441344     -1.35799512459722
  Br         -2.31995686698013     -0.98395689412341     -2.04905441436227
  C           0.53202515613883      0.51285819322983     -0.25163028685354
  C          -0.15040408782694      0.90827109805668      0.88871980588136
  C          -1.58183777472329      0.84418408164570      0.86554180375535
  O          -1.94101320476625     -0.69531046351279      0.66865178906924
  C           2.03921837910609      0.45655889041602     -0.21948734289133
  H           0.15944165586623      0.81390897562420     -1.22540772974480
  H           0.34670072404991      0.81430033033273      1.84343832301972
  H          -2.06324090513827      1.30067892198797      0.00117733495495
  H          -2.08747058808365      1.08595367177601      1.79276164520995
  F           2.49187474233348     -0.21332743733953      0.86704024719466
  F           2.52852024440839     -0.19498745358973     -1.30024759880783
  H           2.49598176242630      1.46089692552952     -0.20483825530721
