17
Coordinates from ORCA-job NEB_product E -34.003646171860
  C           3.33464692022080      1.19506068041445     -0.79433129309747
  C           1.88572739727929      0.86603672464673     -0.89100298792916
  H           3.76499074102388      0.58925790362778      0.00817361669966
  H           3.82204933455891      0.94050685142912     -1.74020562415390
  Br          0.99381332943974      1.85478631634990     -2.34560662350430
  C           3.56060410329253      2.69114499704111     -0.50225582897370
  C           2.84309250715720      3.10165298604498      0.75403569182474
  C           1.87121088981957      3.99266707863046      0.78114023658110
  O           1.23999200471361      0.12173588126809     -0.24529730124959
  C           5.06211060104480      2.95218386622382     -0.35898249891254
  H           3.21079327528962      3.29018354420279     -1.34907550247022
  H           3.16899481670610      2.59845024684733      1.65411335238594
  H           1.53238767511916      4.49436914179049     -0.11065405220792
  H           1.36802710634484      4.25112017793288      1.69617136224702
  F           5.60475596241412      2.18418698036849      0.61481427444779
  F           5.71572526080833      2.62867058727993     -1.50034699746001
  H           5.28707807476750      4.00348603590166     -0.12408982422744
