21
Coordinates from ORCA-job NEB E -51.008920296410
  C           0.47569115346015      0.39001479037659      0.81906559861894
  C          -0.84572021065174     -0.13143879164163      1.21837209044150
  C           0.48214644340183      1.82546158094556      0.96404680564680
  H           1.29509266834488     -0.04686977956043      1.39748123436451
  C          -0.96552364649306     -1.30513498278043      2.04961671965858
  C           0.65975348367604     -0.02351462167062     -0.76241872153189
  C          -0.49658304236058      0.49753629852614     -1.46803351775716
  C          -1.77050194979671      0.04817716927396     -1.03173499771467
  O          -1.88276689245412      0.23923794745884      0.54387527682454
  C           2.00154129067675      0.38014153158182     -1.35030248648209
  H           0.64947363392495     -1.12230408043454     -0.70970801968688
  H          -0.41087218131480      1.42062039010051     -2.02034803182245
  H          -1.92142076106791     -1.03317583818689     -1.06686487803695
  H          -2.62421594324187      0.58986163228254     -1.42362511106044
  N           0.43275171498098      2.95404388417226      1.12589343614838
  Br          0.28703093860099     -1.49365278899138      3.47172196093194
  Br         -2.75043723433082     -1.65884707572482      2.60774142647995
  Br         -0.48119332813816     -3.05781343638862      0.62692044916513
  Br          2.16817895717540     -0.54516395043259     -3.08083911841204
  Br          2.20934921709448      2.28871421146910     -1.68517793273945
  Br          3.48822568851332     -0.21589409037536     -0.22568218303627
