21
Coordinates from ORCA-job NEB_product E -51.042649047170
  C           2.92817515626148     -0.79105066139589     -1.38552018689846
  C           1.69783482085157     -1.45700731810601     -0.78767286428250
  C           2.85529619942678      0.58538532682171     -0.92869848635707
  H           3.84803985674440     -1.23807520614113     -0.98797327548683
  C           1.95706702142277     -2.28856982815468      0.45940729300683
  C           2.87734105018095     -0.92938706465282     -2.92727260617283
  C           1.90412954455397      0.04397874690656     -3.53398825977631
  C           0.88672768720792     -0.32810745379641     -4.28677868447198
  O           0.60211456082598     -1.38964805380665     -1.25496657839851
  C           4.26084241107352     -0.76730437416906     -3.55387817601362
  H           2.55002829083313     -1.95296662642570     -3.15828394711561
  H           2.09033299661117      1.08709863679281     -3.31643047395936
  H           0.68392213127699     -1.36283927159843     -4.50886388611186
  H           0.20982530022665      0.39455265479864     -4.70558630012990
  N           2.76465591625910      1.65004141666431     -0.52915498204278
  Br          3.10082992543977     -1.39875127413625      1.75294811064594
  Br          0.28760312095015     -2.80055407833673      1.27756549825538
  Br          2.86539147903794     -3.88891410495511     -0.25062466201064
  Br          4.12640998070170     -1.02249100597574     -5.48598744015558
  Br          5.04534465107660      0.98718501147212     -3.21724615767838
  Br          5.50398789903745     -2.13747547180551     -2.87369393484592
