67
Coordinates from ORCA-job A2R E -98.246783526630
  Ru         -0.31579322779785      2.01587816014305     -0.05234309340528
  H          -0.39728026543759      0.62807042423406     -0.73142949723774
  N           1.20814872798596      1.30056482569628      1.15927808363056
  C           2.40653931669069      0.98958751217183      0.63105656681554
  C           1.03581946646392      1.13575583863492      2.48544471634765
  C           3.45287004957478      0.50319689487663      1.40102689152014
  C           2.04615065472978      0.64922304344190      3.30264443014906
  C           3.27759725128966      0.32215723289378      2.76193254842893
  H           4.39437923048837      0.26608672923559      0.92915702766095
  H           1.85976470085471      0.53368101603778      4.35910702800486
  H           4.07448162267422     -0.06002823968495      3.38085739057733
  P           1.42656849768462      2.47842414499137     -1.44657968377022
  C           1.35600170670913      2.09536156898577     -3.30575092490987
  C           2.43150375603697      4.07669696508603     -1.17400873515889
  P          -1.53237176177961      1.50442835533040      1.75769146198789
  F          -2.39675759992628      2.77320195055046      2.30128142842001
  F          -2.72060355717492      0.55657775978792      2.31753017469260
  C           2.59067265001346      1.16545972975204     -0.84399130418840
  H           2.26587696812015      0.24264881002114     -1.34075307690560
  H           3.63843962624862      1.34869111245908     -1.09630125942917
  C          -0.27676852220793      1.51351404664279      3.09393728996077
  H          -0.54827959381611      0.84636455143067      3.91318291669403
  H          -0.24301280924718      2.54688658830136      3.45632089509907
  C          -1.69541701939322      2.65043266801597     -1.09857495996223
  O          -2.57466323722118      3.00192312892349     -1.75989966680226
  H          -0.20497070299960      3.37897353542513      0.69093304488860
  C           2.68678028024973      1.66764776265194     -3.92780846182805
  C           0.36205911143153      0.94728734734967     -3.49542402423443
  C           0.78357148611164      3.32140122036477     -4.01982404909600
  H           3.02336485152770      0.71711781231264     -3.51926070009884
  H           2.54215530076133      1.53345474053543     -4.99975422175557
  H           3.47138091635304      2.40220576674369     -3.79033062259747
  H          -0.62518141007933      1.23811421919757     -3.14225236030345
  H           0.29444264639573      0.69497734417744     -4.55324639199329
  H           0.66738734784624      0.05405538169911     -2.95253495945505
  H          -0.07004741511625      3.70667987276811     -3.46025901419173
  H           1.52452453279869      4.10842758097938     -4.13007831409275
  H           0.44057610959421      3.04514260171411     -5.01632239606531
  C           2.87631444378411      4.05176282189349      0.29186201774941
  C           3.67368923818421      4.26476248755598     -2.04194296492297
  C           1.47599867950844      5.25697277199239     -1.36111747964284
  H           3.64623466955015      3.30230123151674      0.47191541377041
  H           3.28650144670399      5.02325363618261      0.56641343145661
  H           2.02565397738388      3.85427308521614      0.94321969651756
  H           3.42059995262979      4.41697031553794     -3.08692383969257
  H           4.20238600306597      5.15584887416019     -1.70156313112845
  H           4.35829322468340      3.42259384990221     -1.95482276360282
  H           1.27979373655918      5.45848691985529     -2.40959484764908
  H           0.52849255005673      5.04697109078978     -0.86457350760046
  H           1.90290088222597      6.15707229537574     -0.92065311192008
  C          -0.88836068172957     -1.47155031949412      0.76017601627539
  O          -0.66109415316892     -0.71254267464549      1.69409394217698
  C           0.24491508150279     -2.05908068549370      0.01592106226168
  C           0.15393618123106     -2.37467483145207     -1.33906007980847
  C           1.27498780466269     -2.80151150974627     -2.02718796327733
  C           2.48987847340232     -2.93811897116134     -1.37325769848543
  C           2.58572871280044     -2.63729100689605     -0.02339325773091
  C           1.47382748382919     -2.19200503315071      0.66359122555977
  C          -2.28656027193710     -1.76240417264711      0.32030980084677
  H          -0.77778156672158     -2.24156596745910     -1.86631524006895
  H           1.20322633794537     -3.02524076333099     -3.08167413560001
  H           3.36082871129596     -3.27447874051141     -1.91672580277458
  H           3.53017356092090     -2.74327272831991      0.49006287269174
  H           1.53619093997614     -1.94188763070586      1.71249973515642
  H          -2.36284455940544     -2.63890497362765     -0.31404357422296
  H          -2.63864973773571     -0.88496514347032     -0.23081044690947
  H          -2.91917080764222     -1.86604423174490      1.19864045317794
