67
Coordinates from ORCA-job A3R E -98.211209273610
  Ru          2.16986394176869      3.27428882884267     -0.27162715433565
  H           0.82207770857490      2.10228613782036     -0.32897375555146
  N           2.52551688164280      2.21073980475389      1.52070321677066
  C           2.90744571307625      0.89124622673038      1.38514799941048
  C           2.22857154014836      2.69484531038318      2.73567382963245
  C           2.87376054058126      0.04729931377736      2.53834420265202
  C           2.22421402237239      1.91707653852492      3.87222178955789
  C           2.54054546880207      0.55268816525569      3.75563256449427
  H           3.13416514009189     -0.99243208623793      2.41177227180175
  H           1.98117686346491      2.34977702766043      4.82817735247756
  H           2.52254629859484     -0.07784339174943      4.63188081893795
  P           3.59420445785721      1.63440720949509     -1.10107129780779
  C           3.24773134346769      0.83781054813306     -2.78502977750860
  C           5.45657106575374      2.05007805816658     -0.95865009403564
  P           1.18338348946133      4.65479461541820      1.20229176386645
  F           1.52373259289005      6.22440863069457      1.23732404855113
  F          -0.35624816637663      4.93407622323113      1.65644073509245
  C           3.26839654336593      0.40838529396811      0.13284006324709
  H           1.08639767257867     -0.08703741189839      0.16876501688315
  H           3.64939111963256     -0.59912016292998      0.04384293605216
  C           1.89220767216377      4.15794767154094      2.81513923154732
  H           1.21616086228656      4.38465115112347      3.64204852329027
  H           2.81107508335975      4.74419504908399      2.93314061109453
  C           1.84240483259460      4.16393446031012     -1.85747651898187
  O           1.66564400512610      4.74916738339736     -2.83240987114174
  H           3.35988567340760      4.20245272836593     -0.05697113930846
  C           3.65993954936789     -0.63202774095453     -2.83893631065479
  C           1.73381099572512      0.91547829858076     -2.99996811112726
  C           3.91730404600914      1.63907116198119     -3.89945316408539
  H           3.08414897864708     -1.21591210336590     -2.12480988778278
  H           3.45336374436139     -1.02406167665034     -3.83442543992750
  H           4.71627929327808     -0.77194753532261     -2.63451711019020
  H           1.38483866812651      1.95001861667044     -2.96843017802893
  H           1.47869486927699      0.50970606594337     -3.97834398031330
  H           1.19960270199951      0.33307471486293     -2.25396932608797
  H           3.72105534355076      2.70253291425148     -3.76651117359679
  H           4.99034913310975      1.47350936619692     -3.92981920686302
  H           3.50894767516965      1.33638559659579     -4.86344697274826
  C           5.69042327252702      2.33997143445023      0.52671204341438
  C           6.36074730620138      0.88680807545014     -1.35989457731319
  C           5.79468001775387      3.31153643640821     -1.75216526050877
  H           5.51630976696819      1.45286365698259      1.13315581306218
  H           6.71844591660279      2.66272267794566      0.68404163903004
  H           5.02686774679344      3.13481505773722      0.86899874314042
  H           6.34376050084475      0.70644990980000     -2.43120089083401
  H           7.38879551924653      1.11665991766481     -1.08034743442203
  H           6.06758730143875     -0.02311569857302     -0.83861289445206
  H           5.88402325495410      3.11561334261314     -2.81525477964754
  H           5.02234771202550      4.06661179167260     -1.59828708065318
  H           6.74458233037175      3.71781073808511     -1.40714170186057
  C          -0.09995330770946      1.42406854857557     -0.17832545164420
  O           0.27014775898547      0.08418888028305     -0.33486600196657
  C          -1.10349114259916      1.81383153997269     -1.23857074583139
  C          -1.31111018104883      3.15329862856160     -1.54154433718241
  C          -2.24836561044846      3.51788696469298     -2.48922998998618
  C          -2.98678195564989      2.54540278583446     -3.14400494361251
  C          -2.78495772173238      1.21006017080479     -2.84355673400343
  C          -1.84929294289111      0.84358190792185     -1.89209458878714
  C          -0.70391471700512      1.65622105174008      1.21145581098055
  H          -0.73194074473025      3.92140686961891     -1.03651738069537
  H          -2.39811336149235      4.56165919231697     -2.72050233568049
  H          -3.71514577403737      2.83047524855222     -3.88842239631038
  H          -3.35710463247538      0.44785521283567     -3.35142705007440
  H          -1.68215508968554     -0.19495055771621     -1.65380518653446
  H          -1.55945781793666      0.99092814559345      1.32181175028904
  H          -1.04873772615421      2.68017985554262      1.32420233168224
  H           0.01193695557344      1.42044721198141      1.99854712511932
