67
Coordinates from ORCA-job A3S E -98.211304196510
  Ru          1.92185340876855      3.30701902312028     -0.35675009400861
  H           0.50694554239926      2.18908834593685     -0.39532358445392
  N           2.39545255505517      2.37658124983024      1.48093371323892
  C           2.78343297946547      1.05828286658154      1.41969680535930
  C           2.20485277629758      2.95520628999460      2.67392058559765
  C           2.88989640830198      0.31298222964056      2.62863971147793
  C           2.33543971987483      2.27322119116638      3.86458586934020
  C           2.67257072644569      0.91360261134190      3.83070258299704
  H           3.16437293834655     -0.72860341583234      2.56038768842257
  H           2.17797380214223      2.78278879048271      4.80042899693621
  H           2.76667513324025      0.35943594267005      4.75251742174377
  P           3.31019267142057      1.61533683637944     -1.14934745103300
  C           2.92581918954972      0.71766277937955     -2.77609648540228
  C           5.18116830662308      2.03440998205251     -1.08813872286225
  P           1.17944564060184      4.89846438222881      1.06316853970528
  F           1.93780043251559      6.30732868600450      0.87426706335608
  F          -0.15755796930804      5.68731345632070      1.54587683543992
  C           3.01858914205916      0.46984239389681      0.17183719425393
  H           1.12370697452070      0.06388992207886      0.03536751097854
  H           3.43448150474382     -0.52877301817363      0.14159195644661
  C           1.86768195781909      4.41931927489544      2.69127024201844
  H           1.16904628797817      4.66015995945255      3.49482770870588
  H           2.78103892453106      5.01045512604530      2.82749059795641
  C           1.47028322000405      4.10628870276801     -1.95966068642269
  O           1.20161450344015      4.64430014572901     -2.94166505622801
  H           3.14673298068404      4.20189692266775     -0.30070280504848
  C           3.30829834049183     -0.76042410914984     -2.73107295335151
  C           1.41377735472786      0.81416843448901     -2.99639336654071
  C           3.60070195266877      1.42901601274383     -3.94731856185899
  H           2.72446392450478     -1.28297896944218     -1.97692819812196
  H           3.09103144254362     -1.21545967180030     -3.69701904788523
  H           4.36261561582663     -0.90631472188767     -2.52011048038964
  H           1.09201811862149      1.85769038839173     -3.00627176012385
  H           1.15676515289102      0.37537989051133     -3.96023729582885
  H           0.86784742562002      0.26896844462483     -2.23118308081527
  H           3.41884721537983      2.50153686245222     -3.88754426698545
  H           4.67066420362102      1.24694333372413     -3.97388181203142
  H           3.18206317356815      1.06522895035899     -4.88549598582712
  C           5.46848412657681      2.42440130349968      0.36488199126028
  C           6.06635381142869      0.83794544804739     -1.43183745816461
  C           5.50449357341692      3.23625657544501     -1.97538836827352
  H           5.30460337774431      1.58635845716394      1.04005657464054
  H           6.50637116317480      2.73926546031731      0.46316686269922
  H           4.83100216747186      3.25415991844888      0.67294696905109
  H           6.01343437584885      0.57573712612367     -2.48462690184532
  H           7.10408167704109      1.08176789374259     -1.20508423289120
  H           5.78804755204526     -0.02815929786455     -0.83347863118002
  H           5.58209476684377      2.96561815488198     -3.02265013820441
  H           4.73195419700307      3.99864174269453     -1.86529941567742
  H           6.45697487582839      3.66908765433459     -1.67261677673899
  C          -0.28840486092931      1.42144494702298     -0.02691183678965
  O           0.16978925941535      0.12308959892471     -0.23035375134741
  C          -0.59148039069836      1.71060228705492      1.43150400146563
  C          -1.10868604912991      2.94544673976521      1.80637684733842
  C          -1.39291729869561      3.21446173387176      3.13273585354934
  C          -1.16529632449306      2.25003995510195      4.10086683444336
  C          -0.67596307945590      1.01067146280498      3.73045518123420
  C          -0.39652312344493      0.73847655418281      2.40246840091748
  C          -1.53757000604492      1.61439058322828     -0.88925018569753
  H          -1.32669562714649      3.68884279609835      1.05147833700594
  H          -1.79611684293379      4.17841788035027      3.40614164703504
  H          -1.38030949958059      2.46157826613786      5.13778221094361
  H          -0.51041603655039      0.24754807683109      4.47616889528375
  H          -0.03116797915907     -0.23625191457006      2.11590571231785
  H          -2.31244329337919      0.93881187519543     -0.53287814022998
  H          -1.31182811830743      1.36732135674379     -1.92324293031927
  H          -1.90165007187574      2.63594184274621     -0.83848688058181
