67
Coordinates from ORCA-job TSA2S_3S E -98.205366977490
  Ru         -1.46429038298082      0.25597548526158     -0.46703331929123
  H          -0.92144287181560     -1.40030849398544     -0.51373335523465
  N          -0.42990876758723      0.37185022498117      1.37349084633394
  C           0.92329939205572      0.26428122566743      1.32799019586960
  C          -1.05011625185746      0.44973272904989      2.55503592702255
  C           1.66581684356271      0.21842279492871      2.52264806016030
  C          -0.36040296235278      0.41479569582734      3.75505640455114
  C           1.02560554580370      0.29349255212916      3.73333701182067
  H           2.73868986661004      0.12224634803005      2.46331645190988
  H          -0.89857166578380      0.48116420206248      4.68615806888412
  H           1.58318782932557      0.26279569889184      4.65685151143206
  P           0.60740252987675      0.94572546838048     -1.26480404641135
  C           1.31536091374366      0.29640019885560     -2.89829526126091
  C           1.00102356792255      2.80961472110071     -1.09581174856904
  P          -3.21071540627175      0.06018267855558      0.93597872952261
  F          -4.34201884126720      1.19090378552024      0.74534331651021
  F          -4.34968959413757     -0.97905226030880      1.45021614519671
  C           1.55466894459143      0.12035936009298      0.03841849453933
  H           1.35335267899451     -1.21819211423246     -0.23071658643704
  H           2.63236645396703      0.26778727238515      0.03893641608988
  C          -2.54163153068449      0.60601044360736      2.55651775937214
  H          -3.00074524486075      0.05132428082498      3.37725475185377
  H          -2.80671653296295      1.66542333900902      2.65407454258937
  C          -2.38908291814367      0.14538293680402     -2.06291896909911
  O          -3.00815770250802      0.11197675898265     -3.03236466048764
  H          -1.88120312030915      1.72891755440131     -0.35061763100756
  C           2.81987125058655      0.04039612127254     -2.82357310853875
  C           0.62040822845337     -1.03685183974706     -3.18244762634335
  C           0.96642650001615      1.24597711298754     -4.04402866703779
  H           3.03222369492154     -0.75991713046096     -2.11914324114776
  H           3.17380279634671     -0.27525488817373     -3.80442125842640
  H           3.37933453744553      0.92432344402001     -2.53480820151298
  H          -0.46116262631924     -0.90544128885650     -3.24309128567071
  H           0.96644182032748     -1.43242771547481     -4.13670274377126
  H           0.86015095868002     -1.76770614513171     -2.41337559342878
  H          -0.08971428332573      1.51079980967495     -4.00104556404656
  H           1.56614443907161      2.15128559704969     -4.02677239712450
  H           1.15149031263687      0.74838605333283     -4.99562377343032
  C           0.74585759203766      3.18452974956713      0.36702644579727
  C           2.45282457296444      3.15650709257575     -1.41958845419808
  C           0.03395768031430      3.61709766650731     -1.96289209966639
  H           1.45003705037375      2.69374642726040      1.03662159446387
  H           0.86043124482778      4.26050911390558      0.49264432611137
  H          -0.26993455580158      2.91814035828643      0.66010647389943
  H           2.68128436085419      3.02577225718025     -2.47297800627628
  H           2.63292108065636      4.20235389839586     -1.17136286427871
  H           3.13827581763087      2.55166598454372     -0.82828304012691
  H           0.31891167811722      3.61235792599612     -3.00909573636587
  H          -0.97376230018882      3.20961799828278     -1.87127692598621
  H           0.01509251055617      4.65316966070933     -1.62797176056838
  C          -0.35878697552633     -2.46125628155903     -0.18883318529333
  O           0.94539608284853     -2.39300227503286     -0.47154736811913
  C          -0.66759795805397     -2.63386613500387      1.29015489187223
  C          -1.97607630842471     -2.70926154258427      1.75202422556944
  C          -2.23641341070684     -2.86643687911719      3.10110396249758
  C          -1.19030863100972     -2.95288305753383      4.00562804842722
  C           0.11475463604003     -2.90674819402439      3.54917077251302
  C           0.37473191045667     -2.75387399453351      2.19886875425354
  C          -1.05921886824190     -3.54391249110968     -1.02027205373245
  H          -2.79717349949790     -2.68316916335977      1.04891111713968
  H          -3.25949964386703     -2.92613580744893      3.44351354355314
  H          -1.39359871099265     -3.06902781867268      5.06019847078119
  H           0.93639051885148     -2.99136209815912      4.24544178893685
  H           1.38998532681406     -2.73315953899317      1.83064098897652
  H          -0.67522788757100     -4.51333914372255     -0.70732948809997
  H          -0.82787906434185     -3.40450922036632     -2.07320226321143
  H          -2.13687265089054     -3.52430650930535     -0.88671775424979
