67
Coordinates from ORCA-job TSA2R_3R E -98.203815547670
  Ru         -1.32627504871269      0.41196494814066      0.38137061876232
  H          -0.65704078479610     -1.16178402159625      0.29648100221858
  N          -0.10513883417351      0.54199700435600      2.10405276488647
  C           1.23726879393674      0.48803784973050      1.90799142563562
  C          -0.59916750185776      0.55281976165954      3.34691138049525
  C           2.10494707974398      0.42795001222544      3.01471326120581
  C           0.21579404241948      0.50621393681884      4.46542553026047
  C           1.59571762530752      0.43977676544876      4.28924973596504
  H           3.16730507913294      0.36695947709332      2.83885134762043
  H          -0.21935942558276      0.51806482742570      5.45123239856061
  H           2.25061947442958      0.39571069368329      5.14590460811677
  P           0.60828252920518      1.21033688186627     -0.61997795092582
  C           1.15871691138759      0.61148920336092     -2.33102896856985
  C           0.94117610321057      3.08449421577402     -0.45465749972066
  P          -2.82645785864674     -0.09885246994300      1.96291787245039
  F          -4.27163631138638      0.59870656948227      2.03264661841238
  F          -3.42114506158883     -1.48076047770018      2.58028733690015
  C           1.72494739504492      0.39670442798047      0.55247298556894
  H           1.56247828466245     -0.94120256904473      0.28964759793217
  H           2.78995908046798      0.58604276350241      0.43819444060645
  C          -2.09078012283017      0.61056084003784      3.48936603547739
  H          -2.43976192416506      0.09490333734034      4.38663352783136
  H          -2.42597753338283      1.65364728090834      3.52331784519438
  C          -2.40158045002082      0.30730223428900     -1.11903254551873
  O          -3.11695482932567      0.30385577669992     -2.01919654716464
  H          -1.85592602954846      1.84476292982672      0.59680223167722
  C           2.67319639699392      0.43471400875516     -2.43206736980492
  C           0.50557681883059     -0.75398420230294     -2.55805016186918
  C           0.63459679194382      1.55644795613193     -3.41209800914096
  H           3.00597608169721     -0.36165218989499     -1.77114985398195
  H           2.92770631447206      0.14962305601674     -3.45227603618996
  H           3.21625080240290      1.34360740426232     -2.19367396343037
  H          -0.58087596950418     -0.69099583646433     -2.47645760747706
  H           0.74511913460303     -1.11167528469767     -3.55848980504511
  H           0.87702992848716     -1.48878335947664     -1.84863399673908
  H          -0.42172987122805      1.76617075116641     -3.24512883607131
  H           1.18721215670910      2.49108808424450     -3.44461421225777
  H           0.73424319409182      1.08187643540163     -4.38779073056000
  C           0.82787612787287      3.41761370099442      1.03576633562787
  C           2.33070150004398      3.50641419749247     -0.92674304292487
  C          -0.15237492335973      3.85839432660009     -1.19237389796095
  H           1.62297477649112      2.94957723444600      1.61374674465867
  H           0.90327980927326      4.49519069351243      1.17608131860985
  H          -0.13689309892956      3.09420943464058      1.42682743928069
  H           2.44539100776469      3.40819529432865     -2.00213688173887
  H           2.49039982522180      4.55429427593568     -0.67309314604104
  H           3.10423233264771      2.92244366955660     -0.43067941819085
  H           0.01391946833341      3.88327869312013     -2.26367717480518
  H          -1.12380833548725      3.40111326930098     -0.99849324366026
  H          -0.18169814449119      4.88704932072894     -0.83601249374210
  C          -0.10910860384001     -2.24832934924720      0.40847584556095
  O           1.18872638136556     -2.13892231143319      0.09928104054407
  C          -0.89379985033063     -3.14065555190162     -0.53333950203123
  C          -2.27273595619980     -3.03104447465972     -0.65105049183802
  C          -2.97198636065970     -3.87762279564149     -1.48985287129121
  C          -2.29821709696215     -4.84168494175528     -2.22229145017791
  C          -0.92392247445639     -4.95522775042584     -2.10920768622957
  C          -0.22459266038074     -4.11031539525322     -1.26614924003839
  C          -0.34437692684146     -2.72122517896073      1.85563067676993
  H          -2.80909828359389     -2.26982771777302     -0.09024313543500
  H          -4.04416894931416     -3.78093448784807     -1.57677627248800
  H          -2.84566938362407     -5.49866913735818     -2.88212474343096
  H          -0.39295703690518     -5.70280925712324     -2.68023014900308
  H           0.84827868437048     -4.18238041135011     -1.16808833938386
  H           0.05984384789919     -3.72899674097382      1.94161814629199
  H          -1.40283590243478     -2.74903965308237      2.10180042210827
  H           0.18830776409595     -2.08622797837833      2.56318873964820
