32
Coordinates from ORCA-job P E -44.468840956330
  C          -1.51939166851210      0.19500425545630     -2.07841273643048
  C          -0.20009898779813     -1.47310888124818      0.03346550705200
  C          -1.44860274538060     -1.87940044708350     -0.68985188216691
  C          -2.03690446955177     -1.14700847378904     -1.61915031967235
  C          -0.60006785723614      0.79265412136612     -1.00198700297415
  C           0.44739504306895     -0.23793656781442     -0.57672038172046
  H          -1.85483448375392     -2.83898988123208     -0.40289722425293
  H          -2.92865928210606     -1.50525619803420     -2.11303200133263
  N          -2.55194533385021      1.14757879263155     -2.45740633651142
  H          -0.44100668415503     -1.26784799560295      1.08090034185426
  H          -0.90407179735775      0.03597219415856     -2.97049596812089
  H           0.50605359892185     -2.30754828412725      0.01976821894709
  H          -1.17596574315496      1.06387826850887     -0.11871892147440
  H           1.15186448487327      0.22648819850552      0.12254807151721
  H          -0.11507585370049      1.68694954715746     -1.39422870411816
  N           1.25637638653332     -0.58914817325549     -1.77415444148070
  C          -3.25247902153118      0.91734868609486     -3.72798631127789
  C          -3.60359373886967      2.28615330696141     -4.32305568580920
  C          -2.45194154827075      0.14060959658802     -4.77200188903179
  C          -3.48009328059906      1.41804301361367     -1.37374180211220
  H          -4.18905121809413      0.35956704990451     -3.54436660203487
  H          -2.68795046517988      2.82604109964009     -4.54830292469132
  H          -4.18860559758096      2.88628118639956     -3.63253542414580
  H          -4.17604178211257      2.16305942701628     -5.23892818913465
  H          -1.51342665625344      0.64364615839796     -4.99280145588650
  H          -3.03413884145955      0.09764469645355     -5.68994120472449
  H          -2.24854873568178     -0.88094919109337     -4.46097729889877
  H          -3.00479684028680      2.06069297281163     -0.63296477173966
  H          -3.82797788624461      0.50222809522631     -0.87493160797283
  H          -4.34935726997359      1.94637958562700     -1.75461039262869
  O           1.23657486424321     -1.72499031750292     -2.17743530831937
  O           1.89143341105454      0.31249415826416     -2.26840535070706
