32
Coordinates from ORCA-job R E -44.457710235780
  C          -1.04311945926368      0.27714991768755     -2.16718689191407
  C           0.88811528736536     -1.89840116954716     -1.25291122170018
  C          -0.36345335713779     -2.11497190365098     -1.61476924273043
  C          -1.47599211947768     -1.09940777129452     -1.61181630187534
  C          -1.99925570298044     -0.92495328447157     -0.16636752085161
  C          -1.01964803798059     -0.12087590050372      0.61003909285456
  H          -0.66570196830840     -3.11125129450994     -1.90767370328475
  H          -2.28460658851297     -1.47585726522422     -2.24213605922011
  N          -1.78425725677398      0.66621182424042     -3.31623560009409
  H           1.61392759025526     -2.69327081759810     -1.25814585858461
  H           0.01253144284654      0.22622613919457     -2.46712913240991
  H           1.25425179426534     -0.93571831941424     -0.93667997335570
  H          -2.15048598475217     -1.89653283861069      0.30201011818303
  H          -0.61437989723975     -0.42771437144784      1.55714302546332
  H          -2.96178595857196     -0.40310057105191     -0.20187448306742
  N          -0.58867151574594      0.97984071289612      0.09793807855434
  C          -3.20710739926140      0.94861449085262     -3.11926268614796
  C          -3.52143324674787      2.40838533004306     -2.78009998441774
  C          -3.99292852899607      0.49284632699619     -4.35088066888923
  C          -1.08002449012687      1.61176407961785     -4.16522114212251
  H          -3.53040933705831      0.33448237952041     -2.27412855068089
  H          -3.33963322539725      3.05601850114662     -3.63354373890558
  H          -2.90480933305031      2.73990473194150     -1.94935125889132
  H          -4.56783536859695      2.49892822240095     -2.49838654811916
  H          -3.79220214871146      1.13443357265538     -5.20423308791853
  H          -5.05903880863840      0.52918083837907     -4.14224373437750
  H          -3.71902661071160     -0.52531572661232     -4.61424827429652
  H          -0.14787950941593      1.15263190312240     -4.49538118901581
  H          -0.84859109114340      2.55391431760569     -3.65812737676479
  H          -1.68645512706040      1.81685262840760     -5.04260571966552
  O           0.22238336868425      1.77694391822583      0.54426087885044
  O          -1.15078741175516      1.31089139900335     -1.15356124460439
