16
Coordinates from ORCA-job NEB E -37.479671835620
  C           1.08797458060169      0.53478619422294      0.13249704667476
  C           0.21582155496256      0.86378614279567      1.18670469798154
  N           0.89724603584754      1.29327810087784     -1.10909610769680
  H           2.14641745719987      0.43138019461093      0.35370830548271
  Cl          0.85340031765726      0.68360862846279      2.81207261083241
  C           0.42717338341236     -1.18954889463377     -0.38952318734241
  C          -0.93281571310924     -0.95481610108812     -0.59233874369697
  C          -1.69756249498322     -0.50134676911152      0.51760893026678
  O          -1.04094229578798      0.91038107275785      1.03810989613765
  F           1.17216905752784     -1.51092453540602     -1.46111220261061
  H           0.78446205038377     -1.73032090554649      0.48459642723671
  H          -1.26867982741606     -0.73702736660943     -1.59384820491608
  H          -1.60885997316294     -1.07202431330573      1.43826295898063
  H          -2.71493921867446     -0.20297181625859      0.29979439197852
  O           1.90255265377098      1.75216475921191     -1.59128565982581
  O          -0.22341756822999      1.42959560901975     -1.52615115948304
