16
Coordinates from ORCA-job NEB_product E -37.515451853410
  C           1.74491966962717     -1.68173538487099     -0.40551742793733
  C           1.00803599693250     -1.05139003122743      0.75141494483953
  N           1.45150167280187     -0.91535470590678     -1.66340800301124
  H           2.82871487564001     -1.63379738006156     -0.24432031198966
  Cl          1.61401724223746     -1.66903164171352      2.28690326116817
  C           1.33285688282550     -3.17091488421392     -0.57300938332119
  C          -0.10246377715669     -3.35333681650725     -0.97050608219221
  C          -1.08797362033086     -3.40806170684851     -0.09485619717217
  O           0.14252328919887     -0.25123120988789      0.70997061669799
  F           2.16350391720211     -3.70970404104898     -1.52583507567573
  H           1.56031249608929     -3.69249856531379      0.36642428003009
  H          -0.27703509226094     -3.44103227810988     -2.03175641367262
  H          -0.92032548405240     -3.32329935802383      0.96656032290871
  H          -2.10747691423603     -3.53149154307739     -0.41111353000146
  O           2.38775080575794     -0.34314910444428     -2.15240631527693
  O           0.32253803972419     -0.92787134874399     -2.06484468539394
