19
Coordinates from ORCA-job NEB E -38.942978184090
  C           0.35376056130807      0.45391208301592     -1.03453223718076
  C          -0.76007367502931      1.33761559625931     -0.76727578162482
  O           0.09900301089126     -0.52553420466961     -1.95359920763876
  H           1.31388937526132      0.96350153401975     -1.16764726705993
  C          -0.45017162262884      2.64895218504714     -0.33966457997829
  C           0.47243448121160     -0.31500374502802      0.57378831418347
  C          -0.79131743938128     -0.95509148418962      0.72371334564616
  C          -1.92971105521854     -0.10977898719650      0.81085875220786
  O          -1.92182038478733      0.81023475817182     -0.51828471249502
  C           1.69738924110577     -1.20996393183684      0.55793945874028
  H           0.66671916107928      0.53373942338323      1.22873217752413
  H          -0.90752631372666     -1.94089772182756      0.29794704350277
  H          -1.89958551076468      0.66206472748077      1.57753444646839
  H          -2.89438899435901     -0.59983248494904      0.75660565882139
  H           0.87228696112628     -1.08538400930775     -2.09495751442086
  N          -0.20131801158397      3.73430115623108     -0.05279006876216
  F           1.57191464851053     -2.24468938222359     -0.30789283131924
  F           2.79736545907977     -0.52647503565523      0.15691707647155
  H           1.91115010790571     -1.63167047672526      1.55260792691382
