19
Coordinates from ORCA-job NEB_reactant E -38.974728668110
  C           1.54550915866655     -0.00792757950528      0.10915113046173
  C           1.31542284421554      0.62095117438571      1.27708160033524
  O           1.39231776211430     -1.34500390136883     -0.11315231689772
  H           1.88017624208304      0.59877105373507     -0.72207837241841
  C           1.51673770162903      2.02723442846198      1.27730176734755
  C           2.62590460021650     -2.69960859415938      3.76145316262037
  C           2.27553300386936     -1.80354846507573      2.85528413580523
  C           0.89209273684452     -1.24958144982724      2.70733763044268
  O           0.88756493250549      0.14575941844190      2.48326754174056
  C           4.00698968783456     -3.26906242524353      3.87251655147625
  H           1.92645216019099     -3.10951606824723      4.47477449350741
  H           3.00884331060455     -1.42362324127625      2.15693230346669
  H           0.31833722716491     -1.38448373487618      3.62746516936406
  H           0.38274814586703     -1.77372737577792      1.88896834927666
  H           1.74257760827298     -1.58395330361960     -0.97681608363526
  N           1.68553834603512      3.16047946195622      1.26221864821249
  F           3.97073753237843     -4.62787188592040      3.81107528338725
  F           4.81301734870482     -2.86800662580178      2.86140601100894
  H           4.50429965080227     -3.00268088628153      4.82161299449826
