20
Coordinates from ORCA-job P E -29.198018086810
  C          -1.34005927547731      0.65268314179979     -2.12406202714093
  C          -0.86274420100538     -1.88801800932682     -0.68178264590476
  C          -1.50991084447445     -1.80999873589290     -2.02920609809972
  C          -1.72311410593465     -0.67772357946537     -2.67863736010659
  C          -1.10914506074072      0.59950284721887     -0.62126601685725
  C          -0.17427167558839     -0.56985811495894     -0.29952013078976
  H          -1.79898668181359     -2.75387842215072     -2.46971963915689
  H          -2.17621120464777     -0.67195716694320     -3.65885880986582
  Cl         -2.64273959715410      1.84057709679994     -2.47833953031929
  H          -1.61931427412035     -2.12608232264847      0.07207970124638
  H          -0.44993325783386      1.03297237052989     -2.63359631718143
  H          -0.13774859216478     -2.70515323603388     -0.67561206498550
  H          -2.05882839725346      0.44725806176089     -0.10665363470538
  H           0.04341293576775     -0.57676697789830      0.78253432748039
  H          -0.66762923756499      1.53542926630920     -0.27845934560436
  O           1.03054409979318     -0.34857055538668     -1.00923277084945
  C           2.13760683810392     -1.07514082546936     -0.54443253329890
  H           2.99661950342268     -0.70966275917778     -1.10390267208452
  H           2.03293599008459     -2.15212223117439     -0.71810425470341
  H           2.30234703860171     -0.90579984789174      0.52738182292718
