20
Coordinates from ORCA-job TS E -29.093189040290
  C          -1.14225630990022      1.07519137783060     -1.48932010613802
  C          -0.07149856705746     -1.39873663476272     -0.56918112482636
  C          -1.39634801416386     -1.22026406526359     -0.79721510874342
  C          -1.93581924960177     -0.02410343785913     -1.30505783106396
  C          -0.45395935533443      1.42607174812469      0.52436995467133
  C           0.34172140738075      0.40330748339029      0.95373895939379
  H          -2.09724261260520     -1.96327577599611     -0.44113301777500
  H          -3.00911560379614      0.09473508249840     -1.31202607847330
  Cl         -1.87141535181268      2.56880474515868     -1.97201244641261
  H           0.26679142226348     -2.30314660088102     -0.08869085218302
  H          -0.11407348971673      1.00846043045032     -1.80371694629270
  H           0.67764076057503     -0.83899031838738     -1.09725533079579
  H          -1.44758989891900      1.51166875393180      0.92204483671086
  H          -0.00419945463768     -0.35010039036879      1.64722184329070
  H           0.01942889163321      2.32986403685600      0.18483243061580
  O           1.68965651871078      0.49163990746643      0.76034638507261
  C           2.47209122529497     -0.51194166796641      1.35707470089201
  H           3.51060974906128     -0.22970410232760      1.19345885337267
  H           2.28573447566284     -1.48868882975756      0.89962847225197
  H           2.27984345696284     -0.58079174213691      2.43289240643244
