24
Coordinates from ORCA-job NEB E -36.541989310810
  C           0.13511657684389      0.85078386247114      0.29112091250959
  C          -1.07392478757426      0.36562709200229      0.80463289578153
  C           0.06908312521978      1.91626645736776     -0.77190879174649
  H           0.96024345196175      0.97850764642553      0.98369740533396
  O          -1.16346800955754     -0.29859585512814      2.00520831354154
  C           0.59597121794552     -0.82187147086574     -0.69601680178421
  C          -0.50297035691483     -0.99398660551472     -1.53581142283072
  C          -1.76349829407690     -1.21399623350585     -0.92740326732096
  O          -2.05542288255766      0.13415347377642      0.01083445081306
  C           1.97272225493395     -0.61622843998801     -1.27662041089881
  H           0.64694275143443     -1.45446063600544      0.18623112879679
  H          -0.47012165413383     -0.54400659056832     -2.51644926344962
  H          -1.80843335943028     -1.96743188269771     -0.14637559793122
  H          -2.63110260785899     -1.22154319154188     -1.57348984833135
  H          -0.81851967009592      1.77963329892196     -1.38280925147908
  H           0.94687749368182      1.90230828329748     -1.40983981362914
  H           0.01341774751592      2.89674817808083     -0.29795400282660
  C          -0.19488343364186     -0.06496373835922      2.99723058539431
  H          -0.60521626729491     -0.47901544845384      3.91731826189970
  H          -0.00960621927573      1.00465872887248      3.13236729789656
  H           0.74932923041665     -0.57037743151020      2.76841013186704
  F           1.94769289587915      0.03858142985668     -2.48131096866324
  H           2.44110567787957     -1.59061233873372     -1.46766498669756
  H           2.61866511870030     -0.03017858819977     -0.61339695624508
