24
Coordinates from ORCA-job NEB_reactant E -36.567388798670
  C           1.50587194722542      0.32700376545368     -0.17431410016523
  C           1.89282450472622     -0.86873637121532      0.26308227523240
  C           0.52266653847377      0.55576969605488     -1.27579247363710
  H           1.93290645842143      1.19373906746331      0.30332296898881
  O           2.80783442818231     -0.94894317838852      1.27874145181286
  C           3.93831524036728     -4.04467813520373     -1.54929665366321
  C           3.44632542454838     -2.83614194074033     -1.33427716840257
  C           1.99409504643113     -2.48946869383983     -1.46066918184659
  O           1.41816042851699     -2.05982329557930     -0.22865298743247
  C           5.38284378644526     -4.41093806635564     -1.42826894662777
  H           3.30283148444757     -4.86751856990250     -1.84745088211523
  H           4.09704635824314     -2.02612336181688     -1.03142059929280
  H           1.40727942635646     -3.36467591438054     -1.75017276635090
  H           1.87506759116972     -1.70363327531092     -2.21898365422006
  H          -0.02078264647606     -0.35739937641414     -1.50553417217911
  H           1.02305471737592      0.90906989150184     -2.17934063141462
  H          -0.19309024404134      1.31970354481872     -0.97688941845921
  C           2.90133811447301     -2.18158321278752      1.96186351046109
  H           3.59893111993878     -2.00848609845342      2.77886914319817
  H           3.28567068199099     -2.97409948866569      1.31285226554966
  H           1.92933589977777     -2.48595859012726      2.35965457991295
  F           6.15841907276169     -3.34873679323885     -1.04321890227219
  H           5.77861592823053     -4.76084431003409     -2.39048184402953
  H           5.52473869241362     -5.19679729283793     -0.67492181304733
