19
Coordinates from ORCA-job NEB E -47.296887408890
  C           1.11131221389432      0.01186462237273     -0.39993346799212
  C           0.58942955232194      1.07801881279102     -1.15507782764792
  C           1.06626831024305     -1.37229351162855     -0.97505789936523
  H           2.07730513339259      0.21692501652319      0.06211355314685
  F           1.18419513284978      2.28135177366989     -0.88846332542183
  C          -0.17444058595929      0.23635768687931      1.10087479207829
  C          -1.44206428297534      0.32040764312361      0.51633674904512
  C          -1.72218247141864      1.37231791475403     -0.37931665956725
  O          -0.57276053669780      1.12164412776903     -1.61599603674615
  N           0.03730526221267     -0.88855448111231      2.00689729181963
  H           0.32226102887323      1.12619232144539      1.47781383991934
  H          -2.05041510123036     -0.57276055488240      0.50409697957705
  H          -1.41891322967656      2.37776938635398     -0.10624422761817
  H          -2.65538596417601      1.32766226151868     -0.92355971424495
  Br         -0.67695765276075     -2.00196592727684     -1.51612371364713
  Br          2.19461835618245     -1.34332844304686     -2.61963307554982
  Br          1.89159475830763     -2.68440454081747      0.21500316444717
  O          -0.60410158136754     -1.89032678692941      1.80896396910059
  O           0.84293165798463     -0.71687732150702      2.88730560866652
