19
Coordinates from ORCA-job NEB_reactant E -47.338706571800
  C           1.54748532808455     -0.02120391458206     -0.14188370779017
  C           0.97165656290925      0.62983481075090      0.87245020167965
  C           1.92776403823372     -1.43583061757269      0.01632502593112
  H           1.73708462211704      0.48391470370291     -1.07305910267953
  F           0.61919041643189      1.91339558998030      0.75230553864430
  C          -0.22398184051113      0.31767424181263      5.48485133842773
  C          -0.14958408934167     -0.07712850243264      4.22158000017572
  C           0.09902293829898      0.82887976234770      3.06695757510862
  O           0.71485534402873      0.06191958920703      2.03945627969873
  N          -0.50178950065458     -0.62211194648794      6.53958746444917
  H          -0.09280516949093      1.32983733677434      5.83654731324493
  H          -0.28548044297705     -1.12524602101677      3.98127757156707
  H           0.74082081317963      1.67322983632102      3.34618904755724
  H          -0.86007281481351      1.22851961969905      2.70503848655282
  Br          2.72393604717722     -2.13644292116455     -1.60547843064062
  Br          3.22393179824059     -1.67496178994262      1.49058971876243
  Br          0.36770956902131     -2.55877236784724      0.46730016450896
  O          -0.70045144531984     -1.77598991636045      6.24034059224544
  O          -0.51589217461422     -0.17331749318893      7.66322492255636
