20
Coordinates from ORCA-job NEB E -33.347465988530
  C           1.14875533235535     -0.79383827220943     -0.07374638737570
  C          -0.23921073798857     -0.54976262043996      0.00579488866224
  F           1.72200671943319     -1.52759131068645      0.90777169783475
  H           1.59333122327369     -1.05889358857014     -1.03054418465396
  C          -0.99566784461010     -0.18419528675450     -1.24650720802170
  C           1.79473128707940      0.91884879682562      0.35388711139513
  C           1.26373626931098      1.12128106554095      1.63800412429253
  C          -0.14625824383785      1.18156537362750      1.74745319314537
  O          -0.73502272121229     -0.25120353478417      1.16410592875588
  Cl          3.53012823493899      0.79498022567841      0.19939838442290
  H           1.38565796435299      1.48605707465413     -0.47731530765311
  H           1.83673438375100      0.77024903807847      2.48274093856436
  H          -0.66106579367047      1.85938420695039      1.07166474394494
  H          -0.55240860212026      1.19851860606543      2.75020746810249
  C          -2.09092406754178     -1.21678569130826     -1.52431503848967
  H          -0.31246624495021     -0.13106306144855     -2.09518404096345
  H          -1.46397565731696      0.79410579840671     -1.10306852948174
  H          -1.65156834138709     -2.19558516155692     -1.69910005881281
  H          -2.66673822620955     -0.93012154794988     -2.40062570601923
  H          -2.75977493365046     -1.28595011011933     -0.67062201764923
