27
Coordinates from ORCA-job NEB_product E -39.772347125390
  C           3.27035269109715     -1.70699444874490     -0.27429348353785
  C           2.30736043240298     -2.16253088905578      0.80184835522155
  C           2.60381345358091     -0.60933234994409     -1.10397597580553
  H           4.15881961892406     -1.29525225977372      0.21024015801971
  O           2.92182098296236     -2.26112642923063      1.98488642679543
  C           3.69861594451673     -2.88989875458323     -1.17877093904235
  C           2.53583445443333     -3.41793377077149     -1.96842094787566
  C           2.52820275557047     -3.52282136360754     -3.28373338633964
  O           1.14013893016199     -2.40352837955734      0.63902160296084
  C           4.32251022526867     -4.04081298886708     -0.37357532230817
  H           4.45169536046184     -2.50133009399169     -1.87280452991231
  H           1.68170159182739     -3.73248547388550     -1.38444772782196
  H           1.68505120165358     -3.92466869846896     -3.81932316462372
  H           3.36758683321571     -3.20793011767176     -3.88260823466069
  F           3.50080776648745     -0.09103564311819     -2.00355215048784
  H           2.27558730093423      0.22293576244612     -0.47269167299357
  H           1.76024342915121     -1.00425809707563     -1.67651742101283
  C           2.12429245753545     -2.70619152050801      3.07487983067637
  H           2.76912737745588     -2.69247227569989      3.94949313767790
  H           1.75527178418029     -3.71617886451357      2.88635404051574
  H           1.27010649423756     -2.04113065440647      3.21457657022913
  C           5.57996051362587     -3.64311551319539      0.39094171897359
  H           4.57072331636049     -4.83656485009001     -1.08022811198498
  H           3.58153133737700     -4.44191186473354      0.32166659876464
  H           6.28792462177749     -3.14898457654077     -0.27101150535581
  H           6.05888837070876     -4.52838103381290      0.80305316687884
  H           5.34333075409115     -2.97426485059806      1.21399296704920
