27
Coordinates from ORCA-job NEB_reactant E -39.736058535710
  C           2.68969526643738     -0.33097384506651     -0.09861436882402
  C           2.17806243598715     -1.47070926454648      0.37993822255230
  C           2.30825677877489      0.27354328279978     -1.40410754940650
  H           3.44271407803128      0.16497048591309      0.48939264731381
  O           2.57928309178226     -1.88906300952598      1.60713190034428
  C           3.99260587102380     -3.69387105945035     -1.15834824161566
  C           2.69953289098130     -3.95977465614584     -1.06011038428337
  C           1.64121091754495     -2.95362594050954     -1.40061319779400
  O           1.22299299572470     -2.22037516949424     -0.23303311751151
  C           5.08945959424177     -4.61044031594605     -0.72738449568143
  H           4.31388965449961     -2.73811577381393     -1.55267661541596
  H           2.35615575610999     -4.90547451592820     -0.66093043335496
  H           0.72486077799034     -3.43259276981236     -1.75065915984461
  H           2.01271900044039     -2.26638922733323     -2.16483487700673
  F           3.16679579607655     -0.12704183958686     -2.42511364469538
  H           2.38174226415569      1.36417469459997     -1.37105388911440
  H           1.30417011658239     -0.02915871199446     -1.71676453478355
  C           1.94139221156181     -3.02560640829376      2.15729549703401
  H           2.33241091334072     -3.11554657211808      3.16874499685540
  H           2.18038183252197     -3.92697274534423      1.58722701626835
  H           0.85729621394736     -2.89457483052192      2.18666097874704
  C           5.92399057155514     -3.95598364681737      0.37441330968796
  H           5.73476553717322     -4.82662292474114     -1.58314229795758
  H           4.67199410344190     -5.55338599472893     -0.36823729817977
  H           6.37456082080325     -3.03514752779613      0.01175768722448
  H           6.71660197350626     -4.62536895491154      0.70022885879866
  H           5.29765853576390     -3.71377275888570      1.23013299064313
