20
Coordinates from ORCA-job NEB E -50.398160591900
  C           1.70430874526066     -0.53991042662075     -1.64256524290420
  C           1.05378643917787      0.60783430798558     -1.79593728789357
  C           1.51201458459507     -1.47807840615606     -0.51462314239458
  H           2.55793212645818     -0.67795134861433     -2.28239998343880
  F           1.61985488476954      1.41096035630816     -2.82053206592028
  C          -0.83801438301541      0.51481284206169      1.34062909650914
  C          -1.74924515620664      0.66356526855080      0.38659311485250
  C          -1.32837327229229      1.45788959207501     -0.86634815091034
  O          -0.06944903864153      1.05597359672501     -1.38575213144517
  C          -0.73538977876016     -0.47562139395812      2.48898357411661
  H           0.15119500172248      0.84170766586454      1.03087125946867
  H          -2.82816900624285      0.73854531175204      0.37379494776078
  H          -1.26443281007016      2.51336263214511     -0.57098507945717
  H          -2.02558734347645      1.34637638673298     -1.70803857048850
  F           0.31385511723453     -2.23698039570457     -0.60285750743510
  F           2.48873650069221     -2.39186711685718     -0.46758418606332
  H           1.46676466049353     -0.98267366017520      0.47101707645538
  F          -0.24175828664826     -1.64384907871693      2.07449900438171
  F           0.11265301170912      0.02233342884106      3.38403236543512
  F          -1.90068199675943     -0.74642956223884      3.10720290937113
