20
Coordinates from ORCA-job NEB_reactant E -50.472185235490
  C           1.65740637655104     -0.06644415482030     -0.07929212673518
  C           1.05094904109832      0.81139740380309      0.72001572422932
  C           2.07496995969958     -1.41015034234597      0.42189220897069
  H           1.85710610655778      0.19319706667135     -1.10148961219722
  F           0.68696472404005      2.01087682322698      0.23221104465641
  C          -0.31370469768431      1.90541892382600      5.15089908702371
  C          -0.15903432073921      1.12390751650184      4.09539782113763
  C           0.08243730124119      1.63144627147673      2.71284812800923
  O           0.75914846827499      0.61084792143640      1.99177584012616
  C          -0.59462207735027      1.37417614608515      6.52144969712829
  H          -0.26350213255081      2.98319501846590      5.10810771026480
  H          -0.20779314728676      0.04689749890864      4.17965123718850
  H           0.67692344328790      2.55310501864069      2.72288431369021
  H          -0.88206979084707      1.84934288768028      2.23026169636504
  F           2.97808698395317     -1.31169452948956      1.43365557498315
  F           1.02527570350723     -2.10138119110390      0.94004029943843
  H           2.52584322144296     -2.03191486463681     -0.36533121439280
  F          -0.65507259751491      0.04011326912967      6.57767976552707
  F           0.34142496517748      1.75831143952413      7.40590721630364
  F          -1.76703753085836      1.83285187701969      6.99803558828295
