21
Coordinates from ORCA-job NEB E -37.409831690920
  C           0.19574683280047     -0.98984725040285      0.86449293520503
  C          -1.20170968823387     -0.86226470700721      0.91117655000610
  Cl          1.10903685254319     -0.23211449282690      2.13963210542097
  H           0.63935829707615     -1.93179271197979      0.56798942219048
  C          -2.04907697846414     -1.86787703830704      0.14634419976886
  C           0.52892200470244      0.16722725586172     -0.73446122746559
  C          -0.00857440998530      1.37639148074905     -0.24963902333655
  C          -1.37700826037836      1.48392962086173     -0.05411910653596
  O          -1.74312952138327      0.23574774360104      1.24125168417916
  O           1.82474959442235     -0.03070787705423     -1.05980136262409
  H          -0.08095117709579     -0.42127530575513     -1.41602047746274
  H           0.63964075524432      2.03968100111368      0.30247857167482
  H          -2.05080894273977      1.03453502798026     -0.77014085883689
  H          -1.76331273262508      2.36222310118136      0.43717329988450
  F          -1.29431315613047     -2.83962747642995     -0.45462571141454
  H          -2.62382075635422     -1.36341888481248     -0.64021532555434
  H          -2.74180754592143     -2.36893496316631      0.83168300259435
  C           2.79967436295526      0.88566576096681     -0.59334474757663
  H           3.75210739249026      0.49808240203824     -0.94976045950024
  H           2.81572062628447      0.94395030632856      0.49575493034067
  H           2.62955645079277      1.88042700705944     -1.01584840095739
