17
Coordinates from ORCA-job NEB_product E -41.248622126620
  C           1.58284278673171     -1.21396879152120      1.08404492752303
  C           0.77271245771222      0.06444605137687      1.11595853230555
  C           1.35771486793829     -1.88193353430023     -0.27862477135588
  H           2.65154982835639     -0.97534785057101      1.13405064415310
  I           1.56226235962732      1.49305141960169      2.52912706057661
  C           1.18327318927210     -2.05017701071167      2.31236426476749
  C          -0.19505841664163     -2.61151403836299      2.25078048266406
  C          -1.15340197136233     -2.22405870840570      3.07297467451943
  O          -0.20415551714986      0.31127543391973      0.50740980177714
  I           2.62821909434605     -3.64746293641538      2.67472463841201
  H           1.28682937336435     -1.40994325301871      3.19249252145267
  H          -0.37733563439696     -3.37144995019014      1.50508537289089
  H          -0.99001687544975     -1.47680848247963      3.83331573789922
  H          -2.14345555215298     -2.63917555022327      3.01414706009730
  F           2.04948248216572     -3.01591695125070     -0.40929056660465
  F           0.08631841911384     -2.17323010869250     -0.54761990819276
  F           1.78521910852553     -1.06218573875515     -1.25094047288521
