17
Coordinates from ORCA-job NEB_reactant E -41.236138409450
  C           1.71634170607796      0.05558448297026     -0.02397416151622
  C           1.11656407830941     -0.20936962760927      1.13969839100532
  C           2.07170225511979     -1.05394428809418     -0.95891619054459
  H           1.97874394894928      1.04893014461177     -0.33577990289300
  I           0.62589169899508      1.42295615962486      2.40563571844446
  C           0.02107744427487     -3.95626516776599      3.73038902398564
  C          -0.17890620252997     -3.22448636636408      2.65147967711040
  C           0.02242043205106     -1.74128178870246      2.62918774945121
  O           0.86139926331095     -1.44359688187008      1.52392551790283
  I          -0.29796135724515     -6.02562608723470      3.78312942499246
  H           0.34035190296722     -3.54734507653057      4.67482367746707
  H          -0.48821082243656     -3.65793352787269      1.71212601994657
  H           0.48606516487052     -1.39321648336604      3.56116075763067
  H          -0.94856126143024     -1.24039120721446      2.50340773003701
  F           3.01133287960426     -1.88049895669791     -0.46362781225941
  F           1.02073816502325     -1.83575792178407     -1.26757677510657
  F           2.55061070408826     -0.58315740610037     -2.11608884565385
