17
Coordinates from ORCA-job NEB E -42.313096417230
  C           0.00768785557588     -1.54708912386353     -0.13436639912518
  C          -0.87617235182938     -1.45461775063329      0.94467744080297
  Cl          1.66285616236775     -1.87715297749371      0.22873401871045
  H          -0.33618253547264     -2.03140627101328     -1.04036056237335
  F          -2.19865011951184     -1.57824018010973      0.57521471054912
  C          -0.03841363881265      0.44047328408101     -0.56846113514517
  C           0.31834083549726      1.00008742406082      0.65823766902385
  C          -0.56671517508023      0.87455690607142      1.74316270005531
  O          -0.65035161149290     -0.84149909865520      2.00618551045332
  C           0.82263647268288      0.67316057571919     -1.77829461716589
  H          -1.09098217335651      0.43969598185432     -0.83860475517520
  H           1.36239663918896      1.19014334539765      0.85618840597138
  H          -1.62419248341286      1.02675509971875      1.56201489457247
  H          -0.23121675148949      1.20971260286992      2.71363949586419
  Cl          0.38739893900438      2.30049334374802     -2.41338394304346
  Cl          2.55695222356005      0.67443412108922     -1.44147548438089
  Cl          0.49460771258134     -0.49950728284160     -3.07310794959390
