17
Coordinates from ORCA-job NEB_product E -42.362406941520
  C           1.91450008796908      1.77148341729813     -1.64469396561550
  C           0.48019541381911      1.65181973210797     -2.09713283322534
  Cl          1.89481475389548      0.98677888613918     -0.02830612846077
  H           2.58704111755830      1.18921369345812     -2.27799465521189
  F           0.32238990058306      0.58961875254047     -2.92073452927526
  C           2.36094432895844      3.23328326915802     -1.51204069868717
  C           3.52549950725478      3.37372097234515     -0.56780729980298
  C           3.52660540607802      4.20383599705585      0.45639192230142
  O          -0.44902952101274      2.29791701619371     -1.77145142219990
  C           2.73611042387318      3.78568874970512     -2.89229568508357
  H           1.51421821981965      3.82113545157657     -1.13866744816653
  H           4.37671861906773      2.74580166636565     -0.78433690982372
  H           2.68204695101894      4.83338401323971      0.68215389097381
  H           4.37454112584973      4.28406888213800      1.11327396542143
  Cl          1.39012840385997      3.56378479529086     -4.04675382732555
  Cl          3.09498322815682      5.51686597235055     -2.76445858902748
  Cl          4.16379203325043      2.96029873303694     -3.55494578679100
