23
Coordinates from ORCA-job NEB E -32.464056288610
  C           0.48825618658876     -0.15014880477022     -0.72959510350878
  C          -0.51048449500094      0.21296917559017     -1.64174669178710
  C           0.27837308828215     -1.39480360484296      0.10376660347592
  H           1.50894682318574     -0.04509962332058     -1.09155446013026
  H          -0.24478381234220      0.85589933684986     -2.48823304035173
  C           0.27034862721328      1.31160006405940      0.48571374744804
  C          -1.07571968533111      1.21546433834549      0.85607627516227
  C          -2.05259989676005      1.36745073429286     -0.17013018440287
  O          -1.75468858268532      0.21163405582361     -1.25881945393510
  C           1.34220854315157      1.19335632722988      1.54458879459230
  H           0.53190957526805      2.10455643978436     -0.21012226174234
  H          -1.32280386179985      0.61304865000018      1.71741091021383
  H          -1.96077243744226      2.25927156047104     -0.78677349180309
  H          -3.07988835814746      1.17050609658291      0.11262995492639
  C           0.60221482219334     -2.62944340332096     -0.73495274875801
  H          -0.76280723740741     -1.43878002827482      0.42306400718810
  H           0.91295551495791     -1.39101071837220      0.98849300894449
  H          -0.06054204164648     -2.68592400019729     -1.59519513959642
  H           0.47654770947587     -3.52935186948383     -0.13785375438346
  H           1.62951042934919     -2.59581946067342     -1.09319411888831
  F           0.98236844928831      0.35914702992233      2.57140115613529
  H           1.51805688688724      2.17728236318199      1.99719424816541
  H           2.28339375272168      0.80819534112220      1.13783174303541
