23
Coordinates from ORCA-job NEB_product E -32.502527028820
  C           2.55702817784001      1.15355841157806      1.05045219324363
  C           1.77358199964686      1.82879722231279     -0.05035058664676
  C           2.19540504402264     -0.33505900915933      1.12405130798847
  H           3.60677223092014      1.23305732727066      0.73651195562841
  H           1.90906091901376      2.93156736535458     -0.06773492765908
  C           2.38881327139868      1.97215270793911      2.36392818703605
  C           1.53263196134830      1.27487010449918      3.38289135176662
  C           0.28772115209658      1.61802628729283      3.65225512825515
  O           1.07827821745754      1.28727262741730     -0.85972451903515
  C           3.73705589528770      2.35108536651591      2.98596647686533
  H           1.90751961886876      2.92556424403941      2.11181520269817
  H           2.01020031751114      0.46587226346568      3.91694977001117
  H          -0.20647015319974      2.42303224405270      3.13241345833323
  H          -0.29524061823342      1.10314373678645      4.39626192208738
  C           3.30266855942183     -1.20321593874454      1.70599524852559
  H           1.98430325967617     -0.66619463183640      0.10452352162357
  H           1.27680132611634     -0.45699232329038      1.70004215106864
  H           4.20548699253222     -1.12478493794517      1.10380800759831
  H           2.98978632769951     -2.24455207638985      1.71673165227851
  H           3.54996433881140     -0.91016748743849      2.72149831041024
  F           4.46464240372108      1.24796585516649      3.35022706288315
  H           3.58568160414317      2.93939081051202      3.89765611615342
  H           4.35620715389934      2.91450983060096      2.27913100888594
