23
Coordinates from ORCA-job NEB_reactant E -32.495290100020
  C           1.83494949469728      0.16339462862179      0.14490226402066
  C           1.35506684857658      1.36208269151270     -0.16458558327821
  C           2.05219833146587     -0.51760000173549      1.46649725790154
  H           2.11439507501953     -0.44384554990044     -0.70526244682256
  H           1.28939315928974      1.64266595657148     -1.20944941984123
  C           2.44411943000917      2.27612864175907      3.84129322691773
  C           2.11716942019253      2.65802715894361      2.61821092804277
  C           0.79713320778251      2.37207738485702      1.96303918954655
  O           0.86172704569752      2.40594889141418      0.55461879859149
  C           3.74636368223408      2.58588759522338      4.50788146867961
  H           1.76481833135709      1.70063782471714      4.45611896517563
  H           2.80943350716766      3.23365642105008      2.01977901372930
  H           0.09913590792504      3.18185270857989      2.21445095942390
  H           0.36835630205702      1.42871841294209      2.31988405716825
  C           3.17954163563894     -1.54257187836607      1.36766518879111
  H           1.13359421075638     -1.03508296033523      1.76743734886416
  H           2.30342568952175      0.20287025899529      2.24430137340442
  H           2.94571790016156     -2.30125394480773      0.62390271395861
  H           3.32980901833487     -2.03579132951541      2.32572582482881
  H           4.10869381220611     -1.05497623434857      1.08144206005463
  F           4.57132393005927      3.33628144142975      3.71147440090983
  H           4.29189256460178      1.66406159417802      4.74896835423729
  H           3.58644149524772      3.16003028821342      5.42960405569570
