22
Coordinates from ORCA-job NEB E -60.309528263240
  C          -0.14796673687731      0.77915359653450     -0.61484063632810
  C           0.60371496030016     -0.31497875945612     -1.12453173567289
  C           0.44413201418680      2.10833251358630     -0.22243662352381
  H          -1.01300281472146      0.95337135137109     -1.25233841113298
  C           2.06113102466816     -0.61119512474351     -0.74113171392359
  C          -1.15928110335906      0.00753237264133      0.79584006537941
  C          -1.16526268854947     -1.39000006113015      0.59190255369488
  C          -1.43475125176763     -1.87236940370910     -0.69270848276780
  O          -0.04715368479462     -1.31350635577682     -1.57178881684561
  N          -0.63805610792290      0.39809712675606      2.12008374580616
  H          -2.05867748216695      0.58184592686565      0.59268864328988
  H          -0.50849121859905     -1.96673811146452      1.23374066102494
  H          -2.20567080737321     -1.38467089187406     -1.27748018826176
  H          -1.35447455084780     -2.93515546829432     -0.87207076473387
  Cl          1.20281764478371      2.81849885523754     -1.68570398753094
  Cl         -0.87898969691704      3.20553696779513      0.27200218690487
  Cl          1.64531573761424      2.03982409667557      1.08080037718690
  F           2.19465522613305     -0.89217312814231      0.56404951274629
  F           2.49849464128420     -1.68026283802723     -1.40849862669522
  F           2.89602055792564      0.39256064542623     -1.02104276617178
  O           0.22843616235240     -0.27982026981380      2.60492091290073
  O          -1.16293982535184      1.35611695954252      2.62854409465429
