22
Coordinates from ORCA-job NEB_reactant E -60.356737279370
  C           1.35249847254448     -0.50043340052972     -0.06461280684188
  C           1.94576893348077     -1.51071074664883      0.58096737374904
  C           1.93218937754290      0.42300335194190     -1.07601478574494
  H           0.30631455842395     -0.31469516585310      0.12524416486717
  C           3.40580364919948     -1.93815874247876      0.44285814457482
  C          -1.32361310128855     -3.07440445973193      3.72700994152081
  C          -0.34879259267290     -3.17686695298508      2.83434163590007
  C           0.00838497253827     -2.12635113582757      1.83813340114937
  O           1.36784212778841     -2.31437016449020      1.48900636399895
  N          -1.61667832998957     -4.15664663439587      4.63116718992270
  H          -1.96616080327233     -2.21771457102820      3.86341649726929
  H           0.24482408144091     -4.08261588311572      2.79454373668297
  H          -0.14876436361767     -1.11991451416991      2.24636256431213
  H          -0.62563094876477     -2.24861437007428      0.94636935116355
  Cl          2.05645045934245     -0.39082551492732     -2.66953237761079
  Cl          0.83461466709202      1.81291940697978     -1.26913547480982
  Cl          3.52975241904786      1.05940858332083     -0.62201106851173
  F           4.20844179562789     -1.20802596810934      1.22717336848687
  F           3.55872866608146     -3.21007990343532      0.81447077476892
  F           3.87184964257412     -1.84683076949778     -0.80197793181022
  O          -0.97231668519737     -5.17431555315769      4.53323126458526
  O          -2.50170699792182     -3.95775689178591      5.43158867237744
