21
Coordinates from ORCA-job NEB_reactant E -41.309212937920
  C           1.25671552990548     -0.53899118473231     -0.09385629152252
  C           1.96939792453661     -0.81271174378955      1.01816330924002
  C           1.90494274420906     -0.05152911586425     -1.32331547610705
  H           0.19172229155809     -0.66459476170055     -0.12709661614747
  O           3.29496040002664     -0.64219478032508      1.01999357269599
  C          -1.16124296610389     -1.52029107903290      4.46493974747917
  C          -0.19873493032736     -1.97342795615888      3.68589901816451
  C           0.07120605231898     -1.46451164293015      2.30295612573077
  O           1.47234797405836     -1.26021816149551      2.18133629298833
  H          -1.33390949404722     -1.92777223330219      5.44544928693501
  H          -1.82395835917718     -0.73140490216276      4.14960335039568
  H           0.46570511989517     -2.76112792033523      4.01049791099777
  H          -0.46425169154944     -0.52593749620847      2.11891021672861
  H          -0.25200355754617     -2.21023074618736      1.56199284511773
  Cl          3.12026196402521     -1.21304621004926     -1.95115558821252
  Cl          0.70141123806352      0.20923316506369     -2.59280648926303
  Cl          2.76910225916125      1.49940068963390     -1.06078897164240
  C           4.00439784912084     -0.94410741936326      2.20846149806176
  H           5.04509770737165     -0.72135691659691      1.98441180793704
  H           3.89532729847235     -1.99804273361309      2.47316609749552
  H           3.65840464602805     -0.32683685084989      3.04023835292707
