21
Coordinates from ORCA-job NEB_product E -41.340703121990
  C           1.13561566505486     -0.95809709629050      0.72309063862916
  C           2.47105543991121     -1.43455140108425      1.30533315371658
  C           1.35942779399176      0.22772815370574     -0.20806061930347
  H           0.74804300405389     -1.78422716933933      0.11644820622482
  O           3.02542778093409     -0.51381525780519      2.08434134988620
  C           0.13569595452646     -0.63414643517320      1.84604426501686
  C          -0.20461584343831     -1.87101018083493      2.61954735245055
  C          -1.42511249413195     -2.35828832226492      2.73081332113429
  O           2.94207231146419     -2.51610646863098      1.08849966562324
  H           0.58480687887007      0.10579794370365      2.51250862498420
  H          -0.76862873681401     -0.20920759735323      1.40801019832652
  H           0.63047577709800     -2.36707534388774      3.09588895293968
  H          -2.26968195707441     -1.88190420912513      2.26053300388521
  H          -1.63386653055441     -3.24750167743201      3.29964936416066
  Cl          2.67853664126288     -0.14671969665234     -1.35100072479992
  Cl         -0.11574237577009      0.54540576745142     -1.15376986834802
  Cl          1.78202517381232      1.70976477245184      0.66007125467345
  C           4.28150033612299     -0.85149879452276      2.66129488278922
  H           4.57985627841986      0.00677538047372      3.25717587399547
  H           5.01461669872222     -1.05032339943161      1.87766231853172
  H           4.18359220353838     -1.74119896795823      3.28601878548361
