19
Coordinates from ORCA-job NEB_reactant E -35.709933245580
  C           2.35378502782143     -0.06130285491836      0.63682425993973
  C           1.53849274979282     -0.52374936881932      1.57941870307588
  I           3.54965774277351     -1.03988987061282     -0.80825875969088
  H           2.46005061843453      1.00350670765616      0.53598059141198
  C           0.80832768806578      0.45451232168993      2.46330648267352
  C           3.84585903160679     -2.53900986597550      2.64303018614342
  C           3.16984510311872     -3.17862187840429      1.69509893601615
  C           1.73850351206523     -2.92961226828639      1.35708397378375
  O           1.18517879055745     -1.78174626084582      1.95351519131787
  N           5.21418253797287     -2.85354521489176      2.92115121856622
  H           3.44997488867204     -1.74936185728749      3.26291631771439
  H           3.66545247324021     -3.95731027749875      1.12941789273529
  H           1.14297674295803     -3.75954802006691      1.75965674073387
  H           1.59923634594332     -2.92596550863326      0.27002625414286
  H           1.10318147163943      0.29673964491137      3.49900901015887
  H          -0.26142801865930      0.27004839489523      2.39140807232284
  H           1.01779192670677      1.48050026940445      2.18293002143152
  O           5.73851368774335     -3.75151620793443      2.29975274545371
  O           5.75511767954701     -2.18902788438205      3.77953216206902
