19
Coordinates from ORCA-job NEB_product E -35.718314398220
  C           2.92433852062425     -0.70500070969428      1.87599596530609
  C           1.41791316622928     -0.47160922443430      1.96162945997587
  I           3.50873033084537     -0.05005957194396     -0.10853271514686
  H           3.44621956624578     -0.03416279565481      2.56316431598541
  C           1.02871426888787      0.95839746190544      2.20245302203557
  C           3.30485027618376     -2.15783404657388      2.16598871645637
  C           2.87761399874274     -3.14614285190559      1.12432928151886
  C           2.05427506106247     -4.14673764471680      1.36756730974995
  O           0.63212680406964     -1.37448253285229      1.87117137297647
  N           4.78971426561390     -2.20481450815498      2.30785536869322
  H           2.88926795519473     -2.42362998372190      3.14572055610087
  H           3.31903003886386     -3.00216287861024      0.14793966932687
  H           1.60932883319277     -4.30041622198042      2.33637758325263
  H           1.77262138758785     -4.83819837763884      0.59376251449078
  H           1.11537935269014      1.15687320742541      3.27113886931510
  H          -0.00676894843318      1.11155232665743      1.90984977455191
  H           1.67385197170453      1.65283073804361      1.67127284775761
  O           5.44372267385193     -2.09979524029669      1.30266319996174
  O           5.22297047684229     -2.31670714585292      3.42795288769153
