20
Coordinates from ORCA-job NEB E -28.664060421600
  C           0.25238635747842     -0.14420435834801     -1.02667570510744
  C          -0.93178828712739      0.36033558277202     -0.46046531775737
  C           0.36455031552103     -1.62980059882097     -1.26615612035113
  H           0.68888996300667      0.45182429216253     -1.82480459817076
  C          -1.31462246386413      1.80249567134308     -0.63589526172607
  C           1.37527300462849      0.18805528254485      0.47696886471552
  C           0.79423635294055     -0.53908294979515      1.51641491727148
  C          -0.54410275802366     -0.17276410615092      1.86504883389624
  O          -1.44265693848565     -0.29425241657892      0.55604637811168
  Br          3.16312722475492     -0.28266644103625     -0.04517514111721
  H           1.30114093265763      1.27079217699208      0.49020760446258
  H           1.11667351946402     -1.55493732644361      1.68616746480245
  H          -0.69045832176561      0.87579221278935      2.12349538802481
  H          -1.04130933328367     -0.83273176734744      2.56693488142799
  H          -0.13914599189721     -2.18175193468073     -0.47659243453585
  H           1.40040965327201     -1.95325751259043     -1.33292538351083
  H          -0.12015306611109     -1.86654139005681     -2.21279308999260
  H          -0.73534669597978      2.43316154981590      0.04668847987403
  H          -2.36646349811748      1.93300152887979     -0.39387602251913
  H          -1.13063996906807      2.13653250454965     -1.65261373779839
