20
Coordinates from ORCA-job NEB_reactant E -28.689369073380
  C           1.51310774031956     -0.06156774000622      0.01329438559846
  C           1.56046563421712      0.93439490017715      0.89142756087469
  C           1.27969169717016     -1.50261406761432      0.33425079081596
  H           1.63879540981488      0.17530208006533     -1.03308204956868
  C           1.71669802446391      2.37736555762479      0.51023105884033
  C           4.09968883116714      1.73109861186305      3.98316779584388
  C           3.70258045618818      1.04152689648454      2.93051785800685
  C           2.48692021347542      0.15840447961751      2.94589955462575
  O           1.39417941835588      0.73861098615161      2.25968744741916
  Br          5.61382631776169      2.86592484978304      3.95286401550920
  H           3.61126613664231      1.70173083118169      4.94409127709944
  H           4.22615534488564      1.11415781995628      1.98709836461695
  H           2.12969883900887      0.01221073121342      3.96859410597163
  H           2.75250163306212     -0.81436980361139      2.51053125180399
  H           0.87196097285602     -1.61641631771550      1.33580183072122
  H           2.20640967572417     -2.07448591571582      0.25819251233640
  H           0.57364636826572     -1.92617688983638     -0.37803483583792
  H           2.60159912566034      2.80461103284079      0.98116600776523
  H           0.85407554198569      2.93711594595595      0.86867027446129
  H           1.79353261897520      2.48897601158447     -0.56676920690382
