20
Coordinates from ORCA-job NEB_product E -28.710166068380
  C           2.72775388978237      0.68369845382864      0.82250757722123
  C           1.30784756551168      1.20359135119560      1.06374043246554
  C           2.67235938241286     -0.70843709639015      0.19719597767368
  H           3.26082723451872      1.36659495708911      0.15346956497589
  C           1.06035347258115      2.60346473733442      0.57260253107688
  C           3.43020491776732      0.70495637272030      2.18685683480259
  C           2.89094704541567     -0.26315661616048      3.17647483320372
  C           2.37772827393398      0.10197598208747      4.33684927995165
  O           0.47222439437643      0.53760610797617      1.61530510972703
  Br          5.36657433411252      0.32215924734681      1.91961188737543
  H           3.41709220516364      1.71947257334399      2.59499100267661
  H           2.95612750166248     -1.30573768499562      2.90212267912022
  H           2.31253549959821      1.13666323240749      4.63303255354780
  H           1.98879016537877     -0.61986190225013      5.03283357778420
  H           1.97895840481825     -1.34039094822884      0.74682364688872
  H           3.65856611567294     -1.16791264134479      0.19422861352533
  H           2.32515194842862     -0.63583352155784     -0.83124036009475
  H           1.81160287059916      3.28045297086924      0.97446249987608
  H           0.06796081425051      2.93704668370620      0.86387851561161
  H           1.14199396401473      2.61964774102239     -0.51304675740945
