24
Coordinates from ORCA-job NEB E -57.125755985590
  C          -0.49998825917801     -0.33265164903572      0.92277376982986
  C           0.20185657810952     -1.17614344416090      0.02639967709705
  C           0.10303474315547     -0.08915308582712      2.27524317352659
  H          -1.57327389871270     -0.47477239463649      0.94695540344962
  O           1.50084152072482     -1.39076451837745      0.28165815436549
  C          -0.54093633253246      1.29944338419557     -0.27248111044742
  C          -1.09322766336476      0.80815204423033     -1.45598060449329
  C          -0.37861145364597     -0.17098764662069     -2.17248667966349
  O          -0.31386134277230     -1.49610333757023     -1.09479068175574
  C          -1.36128640988808      2.35206921059424      0.43197834756653
  H           0.52134258651842      1.50868899864448     -0.22144186255764
  H          -2.16679145264043      0.84740313705041     -1.56846688350411
  H           0.68515690798394     -0.01515891804958     -2.30922130253438
  H          -0.86465414608934     -0.62802929791228     -3.02255470218997
  Cl         -1.04309171155933      0.71260824453108      3.36827678503553
  Cl          0.52735111505537     -1.66200341247392      3.03654661152775
  Cl          1.58919444803891      0.87367510623802      2.18783694025577
  C           2.25814277069665     -2.14216868663200     -0.65521062370206
  H           2.92024123667074     -2.78644777446965     -0.07927763423520
  H           2.85369324238394     -1.46494901789227     -1.27126638676631
  H           1.60357108439782     -2.74058547817023     -1.29073119115508
  F          -0.72818606363683      2.92214114273441      1.45958776627291
  F          -1.66742141855810      3.35756091654312     -0.41180364679448
  F          -2.53309608115728      1.88817647706689      0.88845668087208
