24
Coordinates from ORCA-job NEB_reactant E -57.157878638770
  C           1.42529679135352      1.35017080430719     -0.40559334143793
  C           2.29422226037215      1.09592910718615     -1.40269087118777
  C           1.72745384368313      0.98618675172668      0.99197978383299
  H           0.48990309199306      1.84499102289248     -0.58222981778286
  O           3.46160004379217      0.50583218403776     -1.14487988739378
  C          -0.45903023558650      3.95699170624654     -2.43460740630999
  C           0.71116638577489      3.37294013930632     -2.63285190149078
  C           0.87526847497529      1.96175882852822     -3.10792346696351
  O           2.10005873691693      1.38370564890414     -2.70931145380205
  C          -0.59093264152672      5.38750802455601     -2.01339580558345
  H          -1.40575232084647      3.45608041660702     -2.57044599420300
  H           1.63267069245310      3.91895278550484     -2.48030921745041
  H           0.92700261199438      1.96144738138750     -4.20301125276683
  H           0.03127302025039      1.33496792341785     -2.79664652888590
  Cl          3.20357915228091      1.80815321121095      1.59185002300695
  Cl          0.38241107301712      1.44264458149369      2.04734885448122
  Cl          2.00328325917228     -0.77427512290869      1.17810983396622
  C           4.33599078150498      0.23987453432880     -2.22836264322851
  H           5.20286205038103     -0.24254424934076     -1.78289211141071
  H           4.63643490636519      1.16395376853154     -2.72647089911526
  H           3.86859726744632     -0.42694695576444     -2.95580590668940
  F           0.58495636682788      6.00214097068048     -1.84250241677160
  F          -1.27282818470286      6.10829954423820     -2.92218361284672
  F          -1.26438742789219      5.50733699292155     -0.85837395996689
