20
Coordinates from ORCA-job NEB E -48.959225667200
  C           0.14040489218589      0.90636892987173     -0.51109575833458
  C           0.20993381724664      1.58572974553212      0.72142393959546
  C           1.22783458846484      1.03646517629581     -1.55025893546908
  H          -0.84209073826417      0.98207067986177     -0.97424286545476
  I           2.09570809207302      2.01022997354454      1.64563407573460
  C          -0.08568530445575     -0.91165077946480      0.17011876401911
  C          -1.12972792921961     -0.79015179442686      1.09889508147902
  C          -0.96988301355687      0.05859511369252      2.21648779886812
  O          -0.77701508921985      1.55013567034859      1.51270669340902
  C          -0.39069561658233     -1.83414241258775     -0.99423093882846
  H           0.92995238922935     -1.03565526199655      0.53221920028680
  H          -2.13451458855952     -0.97576146790290      0.74479807399495
  H          -0.03617375554830     -0.00562682596865      2.76972503858709
  H          -1.83221570025692      0.21586201024673      2.85041383837624
  Cl          2.69221042343701      0.11147879907804     -1.17689466556912
  Cl          0.63621667260133      0.53848427362190     -3.15577320693436
  Cl          1.68401752719212      2.76701207425781     -1.69972239446838
  F          -1.36009040932855     -1.32816982294474     -1.79316407413191
  F           0.68588810800698     -2.06438821708081     -1.77099164585429
  H          -0.74407436544532     -2.81688586397850     -0.63604801930545
