20
Coordinates from ORCA-job NEB_product E -48.994969431370
  C           1.79112996799063     -2.15822451734936      0.41515805257180
  C           3.06509202845978     -2.38591550506904      1.23109170207440
  C           1.92411607776475     -1.61089758783776     -1.00775561481300
  H           1.26165263380651     -1.37372753084182      0.97800073352710
  I           4.93485381913397     -1.55447737286962      0.62337846568720
  C           0.91952971235559     -3.43958340549106      0.60329781886592
  C          -0.55492142811482     -3.21687978907997      0.37688667700644
  C          -1.30460532679901     -2.48726791467458      1.18173436043106
  O           3.04356875291078     -2.96905026069223      2.26443410313216
  C           1.40595578348926     -4.65361313833250     -0.19135363230654
  H           1.06132981051301     -3.70531126011856      1.65935072561913
  H          -0.98487780723923     -3.71080717062734     -0.48127094589075
  H          -0.90115957279773     -1.98994541751313      2.04896013485104
  H          -2.35585604141395     -2.35435493693092      1.00180568707958
  Cl          3.06740161477929     -2.48522168031720     -2.03203665050042
  Cl          0.34013480858521     -1.59939265698565     -1.82986486009650
  Cl          2.42516148627604      0.10892265236008     -0.91366893971051
  F           1.11446714528224     -4.57371987783340     -1.50791615663521
  F           2.74915856790596     -4.79213754883038     -0.09958088424101
  H           0.94756796711173     -5.58169508096555      0.18634922334810
