20
Coordinates from ORCA-job NEB_reactant E -48.990692720720
  C           1.69452839058916     -0.88559183414641     -0.37109766472240
  C           2.24086078513292     -1.18719235923199      0.80793497609710
  C           2.27788163124075      0.00827343955374     -1.39856674120393
  H           0.73747744241585     -1.30672162568280     -0.64030877158163
  I           4.09117781595149     -0.46678898401858      1.49265574942567
  C           0.19342066336049     -5.03966746753862      1.04066364117518
  C           0.62424412062450     -3.83491103246543      0.70858726200950
  C           0.50449480975146     -2.63658384077991      1.59982366733333
  O           1.74761516869944     -1.96804411145021      1.77024253375814
  C           0.30157024755201     -6.23501011305566      0.14212996991646
  H          -0.29932059273352     -5.24351887087444      1.97989100436537
  H           1.11281857680968     -3.67576368012189     -0.24311556982757
  H           0.21236726232465     -2.93503497101109      2.60931114004503
  H          -0.24648505492101     -1.93925423172116      1.20496651136112
  Cl          3.85395806206563     -0.59837457565373     -1.99040967859880
  Cl          1.17994067334635      0.11145046379005     -2.79372159828653
  Cl          2.52329711896423      1.67019194538791     -0.77834318893117
  F          -0.91475128420455     -6.81762109289060     -0.01785399790741
  F           0.73449606502466     -5.90737390076435     -1.09583902122012
  H           0.98210809800583     -7.00636315732485      0.54334977679266
