23
Coordinates from ORCA-job NEB_reactant E -52.520655403970
  C           1.48665219088239     -0.71777810994216     -0.45785692902576
  C           2.01175028000400     -1.48486587839084      0.51127699240012
  C           2.02504151139398      0.44035734414794     -1.21004696648462
  H           0.47087361635841     -0.94029424836858     -0.74826912112132
  C           3.40113689209794     -1.39576129693294      1.11089222558376
  C           0.32289103931663     -4.75497737496187      2.29437879453727
  C          -0.37149779448125     -4.12601789544435      1.36228007588251
  C           0.07873694088376     -2.90153554988293      0.61968134650294
  O           1.36806358596397     -2.51925948892606      1.06728857184993
  C          -0.14880847142086     -5.96931651401957      3.01627320014459
  H           1.29986494470473     -4.38861105675574      2.57386466746594
  H          -1.35222207610370     -4.47205574165205      1.06516295312374
  H          -0.63628183067627     -2.08382194246788      0.79393537052931
  H           0.10584163997319     -3.11352565537247     -0.45946855067826
  Cl          3.71272376813849      0.28469260293097     -1.72555017038164
  Cl          1.04984451296430      0.64104687817000     -2.69580238635368
  Cl          1.84235480563291      1.96162768401672     -0.26782257020587
  Cl          4.54162886776281     -2.23656042246702      0.02391375995715
  Cl          3.93890780664717      0.26063668784751      1.38841212506927
  Cl          3.44920393097992     -2.22763786824721      2.67967383380802
  H           0.54698733950946     -6.79186923449527      2.85598707893846
  H          -1.13688731883591     -6.27064459211858      2.67801256470089
  H          -0.18450618169606     -5.77522832666765      4.08748313375728
