23
Coordinates from ORCA-job NEB_product E -52.517347410280
  C           1.35374719973402     -1.80107407504068      0.43285457435346
  C           1.97687490208533     -1.02188718896437      1.58674378883172
  C           2.22074989567015     -1.91514316093199     -0.81846618782867
  H           0.54112455457525     -1.12956656963441      0.11651282290893
  C           3.24810716840010     -1.50109954374644      2.32019348305818
  C           0.64279906253792     -3.07815292987553      1.00431247387851
  C          -0.83391066701565     -2.92049853756102      0.76108231148563
  C          -1.72773519093901     -2.76391655032517      1.71778006720314
  O           1.46357034548929     -0.01118359999569      1.97082075363958
  C           1.08741684933445     -4.43149339315320      0.45196796425782
  H           0.80861286697768     -3.08306377087992      2.08631764885119
  H          -1.13105094862959     -2.95443905797218     -0.27795488751866
  H          -1.44656532155448     -2.72868568229027      2.75755289311905
  H          -2.77785999246875     -2.66547271076270      1.50441996713148
  Cl          3.62893648977447     -2.96972569745802     -0.72040915414261
  Cl          1.21151269979192     -2.45236623273309     -2.18631328276812
  Cl          2.80401565289313     -0.26319540317584     -1.23145761318790
  Cl          3.50017992947263     -3.23671465055086      2.42963086509525
  Cl          4.61143932507277     -0.75301255260397      1.44573864595386
  Cl          3.21389573612158     -0.84669058928035      3.97662904594364
  H           2.12361995128954     -4.64750777504792      0.68401445483125
  H           0.94121109187520     -4.49039763696711     -0.62123288861709
  H           0.47130839951204     -5.19691269104930      0.91936225352038
