17
Coordinates from ORCA-job NEB E -39.503322234930
  C          -0.02944545274689      0.47538483919428     -1.42960923578398
  C          -1.32024828377812      0.90812830447975     -1.11102215036971
  Br          0.07820594373719     -1.16161245072028     -2.42772131515255
  H           0.67651506767899      1.20172485050516     -1.81577954394124
  I          -1.46745412102685      3.02176351321764     -0.64956172254076
  C           0.56485366810348      0.04251403099795      0.37711927107634
  C          -0.43416409541181     -0.83196100086613      0.82061373561404
  C          -1.75858493206032     -0.33879348917207      0.93369014818342
  O          -2.17595084275805      0.13963148152020     -0.59229557593285
  C           1.99550837940246     -0.41412364264859      0.39185483681361
  H           0.51053863722234      1.07204524502904      0.73490868394713
  H          -0.29534311109694     -1.89576031762593      0.68802561727466
  H          -1.89145387145773      0.60689163560748      1.45507319037633
  H          -2.52798846925914     -1.06343507427019      1.16619658696287
  Br          2.63232581605606     -0.15590921223730      2.25497292184824
  Br          2.28883895024438     -2.27904016060146     -0.04975356756715
  Br          3.15384671715097      0.67255144759044     -0.74671188080840
