17
Coordinates from ORCA-job NEB_product E -39.547510755600
  C           3.27713995637973     -0.38162711999815      1.45343731009801
  C           1.83544166244416      0.04414494317084      1.46126825834386
  Br          3.66269757163835     -1.05397890384611     -0.34861034665699
  H           3.92100327008302      0.49034166235122      1.60452071927045
  I           1.41870845668221      1.41794053930513      3.09175530595106
  C           3.49515034733984     -1.41911390131804      2.57214078161341
  C           2.86391607528458     -2.74096071121660      2.22765460540225
  C           1.79619702095804     -3.21028122919218      2.84401497945533
  O           0.97444519905231     -0.28671059969344      0.73232571771538
  C           4.95538774282293     -1.60308608703644      2.98201455633243
  H           2.99539757516793     -1.01588776748126      3.46663489294035
  H           3.33141649638474     -3.29301045515063      1.42411163578389
  H           1.31343606722183     -2.67864998866478      3.64848418819596
  H           1.36267283207530     -4.15404673582206      2.56590175006914
  Br          4.99488040238048     -2.77370415350723      4.55703694239652
  Br          6.08731770101636     -2.40896256116779      1.62526144947546
  Br          5.76069162306822      0.11109306926753      3.51354725361349
