25
Coordinates from ORCA-job NEB_product E -40.200116524120
  C           2.67861303920043      0.23027222598396     -1.54893815606881
  C           3.14657022342608     -0.94773737682253     -0.68560235972446
  C           1.27418230329548      0.64671906546448     -1.11572580949208
  H           3.33361809026563      1.07667621622459     -1.32214655773105
  N           2.41549755899326     -2.07253081976712     -0.82124944644555
  C           2.75116147294649     -0.08663163479692     -3.05737663821121
  C           2.46086450559265      1.14676252216207     -3.86341918605860
  C           1.56910266664096      1.19533511232039     -4.83404954533138
  O           4.09635706844952     -0.86619846805354      0.05724524538761
  C           4.11883473693823     -0.68183345749678     -3.44629850322767
  H           1.98970923540593     -0.83736212210384     -3.29769094117164
  H           3.03983626303373      2.02350491878192     -3.60991834316281
  H           0.96876526665406      0.33997010806500     -5.09904987180071
  H           1.39452369054685      2.09304763375882     -5.40110196061261
  F           0.93010416363311      1.85352567034167     -1.61860590947834
  F           0.32741734309855     -0.22475645256470     -1.55959833300742
  H           1.17298547010456      0.70648879320920     -0.01998630064879
  H           2.65834459132672     -2.87198014774045     -0.25948632080991
  H           1.58918992184027     -2.11740268484049     -1.39043916319036
  C           5.32070687945664      0.17097738975779     -3.05656509784453
  H           4.11460831339689     -0.82634980721204     -4.52932209870125
  H           4.22153013473930     -1.66489671354018     -2.98090280095885
  H           5.23789366250216      1.17613242767723     -3.46088252012264
  H           6.22769390319125     -0.27835850212518     -3.45442616278358
  H           5.42298949532124      0.22722610331665     -1.97626321880339
