25
Coordinates from ORCA-job NEB_reactant E -40.167302500930
  C           1.65516671335625     -0.21086842279901      0.03104306567859
  C           1.47513322417949     -1.19494027320966     -0.87827491146465
  C           1.54703862921226      1.25684435191686     -0.12694762869046
  H           1.88644266956488     -0.52981426638709      1.03351569434990
  N           1.58944611964119     -2.51296923684771     -0.48996889252341
  C           3.78959505580149     -0.14394479432709     -4.32034551792355
  C           3.14459251190885     -0.11975090071458     -3.16687259631687
  C           1.65255195067812     -0.09999565635002     -3.03774496574554
  O           1.17431777843916     -1.14330550151320     -2.18996724788342
  C           5.27740239560629     -0.12006502187618     -4.46051818669272
  H           3.23507817385611     -0.14596241107073     -5.25062545918761
  H           3.68755558215291     -0.11165426918620     -2.23173799127076
  H           1.17720783667362     -0.30672482551567     -3.99976170724490
  H           1.31020648339548      0.87883255601281     -2.69315880076825
  F           2.56182372067220      1.82469016295191     -0.85835641021555
  F           0.40339268977771      1.65257900455215     -0.76722839241265
  H           1.55289531104711      1.76323367896097      0.84938090000637
  H           1.23052001242277     -3.17049497171106     -1.16403285750322
  H           1.39333428636716     -2.73023103962434      0.47217125980087
  C           5.73643118148811      1.14487784596815     -5.18585907776852
  H           5.59766985597262     -0.99525597992512     -5.03329415267533
  H           5.74268684653481     -0.16765692090857     -3.47475984018228
  H           5.29114332196325      1.19988921922272     -6.17684148481781
  H           6.81859621014101      1.15071348821756     -5.29255997132473
  H           5.43747143914713      2.02717418416311     -4.62505482722349
