17
Coordinates from ORCA-job NEB E -30.305604478850
  C           0.51556195354862     -1.24739530501345     -0.18160279391316
  C          -0.76055245669988     -0.75591129885026     -0.50833588609380
  O           0.71701917623596     -1.81081669405293      1.03953280874092
  H           1.13056136754096     -1.71897658364053     -0.93781437480813
  N          -1.04264698105415     -0.39025519373352     -1.82238096725628
  C           1.31682428417803      0.60205968921614      0.02828253472888
  C           0.55224025402441      1.12943919117586      1.06277405107588
  C          -0.82556071606488      1.32871000232397      0.80746164490942
  O          -1.44702582700304     -0.20183474651714      0.44089595857546
  Cl          2.99483568411729      0.26650048738220      0.31963674975711
  H           1.14635383665928      0.92907534676405     -0.99108215531178
  H           0.88111987282055      0.97141711354448      2.07920745260805
  H          -1.08312030605914      1.82783123194021     -0.12052698005339
  H          -1.44872934150164      1.62069776725307      1.64143274630244
  H           0.04793383160617     -1.45394534234307      1.64494971800014
  H          -1.99377367165280     -0.08566578350715     -1.96460598560824
  H          -0.70104096069575     -1.01092988194193     -2.53782452165350
