17
Coordinates from ORCA-job NEB_product E -30.362645572720
  C           3.17864481109272      1.34724624459215     -1.03633376503304
  C           1.79829198869403      1.68505750572149     -1.62802542952370
  O           3.15683656828467      0.08587641503709     -0.42405326041472
  H           3.90374954845774      1.36333441550485     -1.86627708991770
  N           0.88102969675433      0.72896464256108     -1.43331548346743
  C           3.53806379541098      2.46951587397198     -0.05196059002209
  C           2.56296196869770      2.56293447371046      1.06967614326144
  C           1.94965324187402      3.68192062575505      1.40720994034517
  O           1.59538728701059      2.73029532705194     -2.20211826859378
  Cl          5.17074640933152      2.09982467244300      0.63337770609555
  H           3.62632912340541      3.41478558977355     -0.58912309755618
  H           2.38141539927273      1.63829680328156      1.60043743115097
  H           2.12548615992927      4.60478506438067      0.88049126897121
  H           1.24088012159616      3.71555903518502      2.21621557760322
  H           3.98273531288962     -0.00696475866445      0.07252815710998
  H          -0.05106928109822      0.84933397246552     -1.79125648467322
  H           1.14415784839675     -0.11666590277094     -0.95597275533568
