17
Coordinates from ORCA-job NEB_reactant E -30.322458086100
  C           1.76641434585926      0.12935605369615     -0.05708653475130
  C           1.53848092118236      1.07970623937593     -0.97005504417773
  O           1.85775716482465      0.34983451829500      1.31352571251035
  H           1.86628802595470     -0.89345430889005     -0.38923317251114
  N           1.45642316150521      0.76717097388674     -2.33265182789784
  C           4.24106894467012      4.17130561708316      0.25918180191040
  C           3.51284234336464      3.07907915509946      0.11728839530017
  C           2.02585494877731      3.04583489466903      0.30726621148857
  O           1.36685955311991      2.42466102795247     -0.78037469072063
  Cl          5.94989729713495      4.18331312217035      0.06099442228118
  H           3.83285903461114      5.13358258426366      0.52707882037303
  H           3.96652732811616      2.13861847963065     -0.16050122021262
  H           1.61393418041571      4.05664798820718      0.34657100604298
  H           1.79130958729059      2.51933064274294      1.24026136558600
  H           2.38076672755571     -0.35586999525235      1.70463265122287
  H           1.01553112593048      1.51643811993913     -2.84811924652657
  H           1.03678530968710     -0.12855511286944     -2.53207864991773
