23
Coordinates from ORCA-job NEB E -44.710578492090
  C          -0.11220612860697     -0.84930106113423     -0.54554964471911
  C          -0.91787890034154     -0.04775426187036     -1.38568893929497
  C          -0.72398740911287     -1.94375362028676      0.25234987411703
  H           0.83043302976335     -1.17364443101658     -0.97738572066058
  N          -0.32988176821740      0.48110058658808     -2.51918724751420
  C           0.46686878093244      0.69683864236619      0.74750357567332
  C          -0.78085546106493      1.16990478108326      1.15592960127388
  C          -1.63277860081734      1.74684825392941      0.20962033352271
  O          -2.00173211384678      0.48274993673140     -0.98115449325007
  O           1.28221521920868      0.15542404701516      1.67328458706006
  H           0.96999071329099      1.21160746627659     -0.07220065208180
  H          -1.18237535059776      0.77716902398169      2.07569628255967
  H          -1.20323907116595      2.42269906217410     -0.51931781410940
  H          -2.63323909968652      2.00592537934305      0.52086634498453
  Cl         -2.23058578874399     -1.55524597796923      1.06772627396011
  Cl         -1.10376701505531     -3.31646450833783     -0.90077886699921
  Cl          0.40912964296002     -2.62263804691922      1.43902804607850
  H          -0.94825849982265      1.02120926589500     -3.10422974290874
  H           0.34300312185844     -0.08232449341721     -3.01099252841359
  C           2.61243764861864     -0.09277531187306      1.28156795468175
  H           2.67329123538348     -0.96244694187747      0.62024716017485
  H           3.16615662496561     -0.30185064623306      2.19455649947357
  H           3.04725919009833      0.77672285555107      0.77810911639170
