21
Coordinates from ORCA-job NEB E -44.769767007280
  C           0.36902135185344      0.10254930899342      1.30367575305274
  C           0.05628887284141     -1.02156565210101      0.65459500735974
  O           1.00312527276185      0.57174234356727      2.34820500963680
  H          -0.88386088091849      1.26888473234521      0.86086310522817
  C           1.44511372261517     -1.27595491569058      0.46149882780412
  C          -0.68544737613410      0.22948809938622     -2.45513246215510
  C          -1.39428862602418     -0.87091522831557     -2.26631178176660
  C          -1.01132349950149     -1.93128551457645     -1.27032049885582
  O          -1.06081069835478     -1.41937417478056      0.06667037302538
  Br         -1.19790517834962      1.56476234334742     -3.67742910119293
  H           0.23725875059031      0.45315925218178     -1.94395301970446
  H          -2.31785146942173     -1.02249682957791     -2.80525746363956
  H          -0.01526026900851     -2.33326432678005     -1.47851649531543
  H          -1.74272962242280     -2.74194106794542     -1.29612159018880
  C           0.98811640120744      1.98358008658908      2.57905693234455
  H           1.88469220791100      2.19841782953151      3.15736306481834
  H           0.10272230336239      2.25503634950214      3.15790063198122
  H           1.00032975110229      2.54521301838040      1.64631851829308
  Cl          2.31018621541246     -0.92014621464074     -1.01272994008017
  Cl          2.44349413043844     -1.92353965313734      1.71529132468255
  Cl         -1.53087135996051      2.28765021372118      0.25433380467216
