21
Coordinates from ORCA-job NEB_product E -44.868413708990
  C           1.00396062929873     -0.04576147376651     -1.42100521578874
  C           2.25897432012556     -0.85540794468172     -1.10958639753001
  O           1.25737672907580      1.32782109603072     -1.39865071689244
  H           0.20415430525442     -0.31338297496879     -0.70847389060102
  C           2.02727935798578     -2.13168971589538     -0.27316765212940
  C           0.52768504219441     -0.39776146154709     -2.84368292638434
  C          -0.78394531642986      0.24396223470538     -3.13944860675263
  C          -1.84667739887732     -0.43327027298605     -3.53145611138209
  O           3.36100633154611     -0.53576776802779     -1.43249827318772
  Br          1.86280710461938      0.26108164171489     -4.11812252346968
  H           0.48552852459036     -1.47914471111910     -2.98201488899396
  H          -0.79963769811741      1.31744219064015     -3.01920964838111
  H          -1.82554669696177     -1.50329997864891     -3.66039381804949
  H          -2.77998644581144      0.05786397575236     -3.74324227383124
  C           1.54932761744280      1.85538569829456     -0.12583337125674
  H           0.73696250556061      1.64649237779239      0.58023039560669
  H           1.64695436067766      2.92913568242921     -0.26725806076171
  H           2.48588978262894      1.45567893904421      0.27418897024444
  Cl          3.45227796672378     -3.17165611057493     -0.30623842552051
  Cl          1.75571437515310     -1.52947353816128      1.38761791423774
  Cl          0.60509460332037     -3.04974788602631     -0.79175447917604
