20
Coordinates from ORCA-job NEB_product E -49.274517992990
  C           1.43667855575250     -1.28729896143298     -1.95755095533219
  C           1.15315722298258     -1.51102451928126     -0.48999867029000
  C           1.37906369295003      0.21666924279841     -2.25041140527243
  H           2.45989916498910     -1.60910298290297     -2.18672662539527
  Br          2.08982056458987     -3.10052796089905      0.17311974400885
  C           0.47510902233530     -2.26218499199506     -2.70821675767403
  C          -0.98917022087839     -1.99539250182807     -2.47426128841124
  C          -1.68315912170704     -2.57797432094662     -1.51493033618638
  O           0.43985752441206     -0.92451038256103      0.23707575964633
  C           0.74554328820098     -2.36688059251163     -4.21520602693321
  H           0.72205155416304     -3.25263508820589     -2.30312628773044
  H          -1.45671341666777     -1.29844327619945     -3.15265043012697
  H          -1.24317860565267     -3.28472332744004     -0.82977960891047
  H          -2.72744157655578     -2.36555350558944     -1.37208240999524
  Cl          2.05471225577057      0.60838603387666     -3.84278324374921
  Cl         -0.23748848286438      0.90958370581852     -2.10257600683051
  Cl          2.43969696766957      1.01934067499833     -1.03204249091692
  F           0.26140359669133     -1.31653122970467     -4.90808101906669
  F           2.07096720265712     -2.43671760708141     -4.47282600037369
  H           0.27409081116199     -3.27287840891236     -4.62994594046029
