20
Coordinates from ORCA-job NEB_reactant E -49.263965507700
  C           1.63894990753678      0.09829762874996      0.03506209229852
  C           0.85242882102922     -0.93718688396052     -0.28327965556559
  C           2.24839479993140      0.95939377377185     -1.00675743895427
  H           1.84711883841261      0.33396511652317      1.06376999788712
  Br          0.12771909264470     -1.98674148608495      1.13122441462429
  C          -0.15561650327373     -3.51395132334095     -4.07661738586869
  C          -0.35920792719681     -2.43723315933059     -3.33841282991774
  C          -0.20932966705487     -2.40498224738235     -1.85206184103279
  O           0.55426502659211     -1.25071681965878     -1.53100104227091
  C          -0.33236487753397     -3.54358305547027     -5.56497674883081
  H           0.12681356552960     -4.46719255735658     -3.65394423002697
  H          -0.64213409140632     -1.49690470474022     -3.78981381534727
  H           0.29048209897151     -3.30919350158892     -1.48422309881935
  H          -1.20280722157363     -2.33296403141258     -1.38519638152854
  Cl          0.99330950979589      1.75580023808429     -2.00591646436936
  Cl          3.25074633826329      2.21494250373704     -0.26612358452445
  Cl          3.27764057129284     -0.00001622029826     -2.11667925894330
  F          -1.15645159096426     -4.56265322045315     -5.92323085585847
  F          -0.89750577930683     -2.41125138808892     -6.03845179199533
  H           0.62134908831047     -3.69352866169926     -6.10107008095608
