22
Coordinates from ORCA-job NEB_product E -37.491423294780
  C           2.31645061104702     -0.69995332433428      1.16720719586703
  C           1.38111553444045      0.15804988731919      2.02061568124479
  C           1.58882248791304     -1.03013128348087     -0.13575038232799
  H           3.24927929544233     -0.18532582277721      0.92983964052561
  O           1.86211092271684      1.18588783573110      2.71128084251263
  C           2.64744491247279     -1.97764434258301      1.97157569863066
  C           3.44054047612976     -2.95041536634730      1.14543208200580
  C           3.00929463632594     -4.15154590640147      0.81242488276591
  O           0.20362479357604     -0.08390963159311      2.07291061428239
  O           3.38510924287264     -1.56256299116124      3.11198495549746
  H           1.69702384036674     -2.43748360191456      2.28569504995134
  H           4.41943049960270     -2.60101328055686      0.84852759635395
  H           2.03353940970464     -4.50537996450866      1.10426973868346
  H           3.60578212293268     -4.82467054119219      0.22195493407499
  F           2.47364476126532     -1.49194109801385     -1.07727148885305
  H           1.12163264778848     -0.13445125161198     -0.55643796062607
  H           0.83293136846912     -1.80514549019973      0.01152927321278
  C           3.24110662691930      1.51447620715887      2.75624593241599
  H           3.32307588301498      2.29709063533906      3.50851379253619
  H           3.58389791393229      1.90502783029694      1.79433130778016
  H           3.83870347552680      0.65288203920791      3.05524014035438
  H           3.60313853754010     -2.33984053837676      3.63698047311160
