24
Coordinates from ORCA-job NEB E -43.017328908810
  C          -0.47503101549602      2.18754847060511      1.01390754649793
  C          -0.41869423090631      0.83247642938226      1.53531130983392
  C          -1.10822468795392      2.49625280662555     -0.15788074594014
  H           0.06179956644829      2.94933634267618      1.55723437302815
  O          -1.34173510827081      0.54036911024159      2.39388625035436
  C           0.84179870096914     -1.03796453285161     -1.90535522149197
  C           1.27918187707608     -1.14521286143677     -0.66001873295010
  C           1.45296787040019      0.03031188698822      0.25040550252264
  O           0.44227485329234     -0.08271016741619      1.28626507006055
  C           0.63993589731077     -2.18322998899629     -2.82906087860420
  H           0.62367684986579     -0.06324860380927     -2.31740990372550
  H           1.50378715582572     -2.10942706966891     -0.22408088183791
  H           1.34595042014631      0.97575931156393     -0.28531228109989
  H           2.41271668227859     -0.00684475517981      0.77299213785664
  Br         -1.80313954817557      4.24770143678704     -0.41790755049946
  Br          0.66464008261932      2.69226798980355     -2.06461346198129
  Br         -2.18516668471843      1.11880049704082     -0.93670779137121
  C          -1.40138374099646     -0.77368867906782      2.94834691338284
  H          -2.28028199015664     -0.78426365062620      3.58768438748942
  H          -0.50203542030028     -0.98339404434800      3.52941741454867
  H          -1.49884606394731     -1.51226978074757      2.15097543090799
  H           0.89163709003812     -3.12967785699836     -2.35698641728789
  H           1.25390197104665     -2.05129020803941     -3.71840179758673
  H          -0.39973052639555     -2.20760208252804     -3.15269067210680
