24
Coordinates from ORCA-job NEB_product E -43.080732740730
  C           2.05464174913784     -2.03024687932189     -1.11779077255049
  C           0.62406617836405     -2.58779072301927     -1.00222198285719
  C           1.93013876256323     -0.51676685018282     -1.15711575428848
  H           2.66627277025178     -2.28962777232448     -0.24866030954610
  O           0.27174803852134     -3.31250600280086      0.05506020833221
  C           2.67063568643365     -2.65619699981519     -2.39132014172088
  C           4.02063044300405     -2.09162892570951     -2.72153310190145
  C           4.30021902689498     -1.47133099495708     -3.85264845040829
  O          -0.17581074755302     -2.38402704103080     -1.87314858232394
  C           2.79047265502053     -4.17093474303808     -2.19493028120791
  H           1.98311653175761     -2.46839136861304     -3.22309803367365
  H           4.79114924527309     -2.26043454684223     -1.97988894703573
  H           3.55032374627510     -1.29896808052545     -4.60736901741221
  H           5.28814832934962     -1.10165724046959     -4.06465553841048
  Br          0.77273620571864      0.06790082432931      0.33292872257879
  Br          3.65037641527131      0.36368667211244     -0.86421760395658
  Br          1.17223532181821      0.16219637629520     -2.79429727415839
  C           1.11788968331226     -3.57591168087734      1.15914118161544
  H           1.42002366471103     -2.65490731495914      1.66384820634990
  H           1.99475522937271     -4.15749146460414      0.86488273489501
  H           0.51128956802855     -4.16776575724357      1.84243378179256
  H           1.81826336220063     -4.61775558560868     -1.99594146992190
  H           3.46604461736958     -4.40312736320132     -1.37255745637288
  H           3.19203351690324     -4.62051653759248     -3.09950011781736
