19
Coordinates from ORCA-job P E -35.847433197970
  C          -1.37839197695737      0.47695695890362     -2.29630173935593
  C          -0.16849889031029     -1.67694592516701     -1.09222640161128
  C          -1.54101215634853     -1.84445413369674     -1.66667313308249
  C          -2.12052383572250     -0.81853913986191     -2.26813844005902
  C          -0.84516092652711      0.79570200141354     -0.89522006299080
  C          -0.05724332699114     -0.37534994030291     -0.27202573824748
  H          -2.00828372650839     -2.81253769743296     -1.59637522253677
  H          -3.09812339673385     -0.86778827842064     -2.71600916699611
  Cl         -2.43251946161193      1.82227892130227     -2.82562031221925
  H           0.09009392907960     -2.53183788997334     -0.46695787025595
  H          -0.55721979092426      0.43588371191632     -3.02040703460083
  H           0.54573148932255     -1.64034209745696     -1.92309041966041
  H          -1.70172249372725      1.02845058681941     -0.26046012833210
  H          -0.46716810745199     -0.57827707337584      0.72513971750125
  H          -0.23391358380152      1.69865226882143     -0.95247652246796
  C           1.40103477830813      0.00436253738633     -0.05846129384012
  Br          1.55055927053631      1.52523200181421      1.17179416401905
  Br          2.41658829235483     -1.46506670442526      0.73820619338086
  Br          2.28101391401471      0.49880989173643     -1.73019658864465
