19
Coordinates from ORCA-job R E -35.757856889260
  C          -1.51926772924003     -0.13110196284528     -2.89820283329601
  C           0.11953425705956     -2.64799562043732     -2.63384956855352
  C          -0.99909239017556     -2.36477380861254     -1.97269219126432
  C          -1.79403754238797     -1.15587536238717     -2.09446114239870
  C          -0.80030676247828      1.89936761752300     -0.15113885393604
  C          -0.30168359515631      1.03581471935978      0.71290487566500
  H          -1.38315196219237     -3.08274929550956     -1.26003559126807
  H          -2.67684056649420     -1.10639384959729     -1.47099626729474
  Cl         -2.52422638025286      1.26111331756215     -2.97898365622581
  H           0.64260967491852     -3.57271301505405     -2.46449927970933
  H          -0.66803748058259     -0.08216392496794     -3.55629046741968
  H           0.55639376076132     -1.97553645156847     -3.35144376359788
  H          -1.70891869796817      2.43114219831808      0.06992548526153
  H          -0.78254271102697      0.85216671661320      1.66744253303122
  H          -0.34191347037394      2.11062313427317     -1.10304301369052
  C           0.95117669909538      0.26495963462142      0.53721497706744
  Br          2.31597530118633      0.96682965909832      1.79559846897397
  Br          0.64883887660506     -1.62029788071439      0.98830032469638
  Br          1.70617071870309      0.33228417432494     -1.24197003604091
