19
Coordinates from ORCA-job TS E -35.742292072600
  C          -0.98786060264672      0.64031139077053     -1.52643365728228
  C           0.26416438937505     -1.63564215362480     -0.30004221988950
  C          -1.06333189127844     -1.58409165071149     -0.56466344672199
  C          -1.68141109358587     -0.48764670205627     -1.20155405170096
  C          -0.41403563115151      1.22424956956041      0.54561095574181
  C           0.37731002256134      0.27429497815135      1.11905237791288
  H          -1.71576927173554     -2.33131364843000     -0.13511112058712
  H          -2.76091818149204     -0.46473580555250     -1.24069184644459
  Cl         -1.81526545011704      2.01539098300032     -2.15604050204209
  H           0.66340841756427     -2.45131125427330      0.27953949543952
  H           0.06096784439670      0.63937006088776     -1.77454554705808
  H           0.97532819435129     -1.08289572356937     -0.88599636144981
  H          -1.44893559568428      1.29174353991922      0.82575225487289
  H          -0.02541464757131     -0.41607240805398      1.84481555039328
  H           0.02004101827201      2.11181665208340      0.11552658215148
  C           1.84497709782517      0.45602847622700      1.19264914009594
  Br          2.26346802079479      1.84689348194745      2.58634805653661
  Br          2.80221992549998     -1.14642209030051      1.74396515472734
  Br          2.64105743462215      1.10003230402478     -0.46818081469531
