18
Coordinates from ORCA-job NEB_product E -34.498583963750
  C           1.85798740547307     -1.18725002519029      0.92641181465534
  C           1.18401564806577      0.19696293559851      0.85389986424442
  C           1.48314502865371     -1.94888731169091     -0.34694022678837
  H           2.93691240472065     -1.00906149451533      0.87467916034466
  O          -0.07923389614502      0.26052968704031      1.24663065322556
  C           1.55044229098840     -1.96921234773156      2.22055579122464
  C           0.14678972660539     -2.48788669151230      2.33431327184090
  C          -0.71728208583994     -2.08870341631324      3.25403177663251
  O           1.77636107113046      1.15266521368451      0.44415584005731
  H           2.23138137578881     -2.82440806505537      2.25281023922859
  H           1.77926390672421     -1.32067559195197      3.06959740697759
  H          -0.12993628671404     -3.25761657261238      1.62696957671197
  H          -0.46442526050149     -1.33973529309081      3.98815451771892
  H          -1.70653781393369     -2.50699064932307      3.32206343894300
  F           1.94438430454773     -3.22103625609073     -0.30798221662720
  F           0.13742260704741     -2.04525526877828     -0.49691841172572
  H           1.88231025487977     -1.46833879217803     -1.25243151350101
  H          -0.43280068149120     -0.59490006028907      1.56059901683690
