23
Coordinates from ORCA-job NEB_reactant E -43.320277585440
  C           1.19048181385393      0.17899483620479      0.28179453922980
  C           0.83105617784854      1.29128986962475     -0.37505792268218
  O           0.33678289305323     -0.51215535596769      1.06461197058519
  H           2.20643174096249     -0.19417820475768      0.20531927121777
  C           1.83411292263315      2.03709005147838     -1.18920311025219
  C           0.14753134136333      4.50289198735766      1.26901724317343
  C           0.05256518753766      3.21332910257581      1.60404369885774
  C          -0.90009732311548      2.28455273479988      0.92532483904604
  O          -0.40079848607221      1.86925544544274     -0.36596300989594
  N           0.99495475454787      5.41001564328205      1.84808271620629
  H          -0.52656221490112      4.92111789946234      0.53248603451417
  H           0.73252687736415      2.78677794048352      2.32802576987351
  H          -1.84151614844460      2.77659302292755      0.67508918185382
  H          -1.09351276055702      1.39498365841233      1.53112363614094
  C           0.85761244995457     -1.68815687963923      1.64484701638224
  H           0.05155631908842     -2.11439030573953      2.23830270435029
  H           1.71081924750841     -1.46459041366182      2.29273813845739
  H           1.16409199398827     -2.40436952674579      0.87688275622248
  Br          2.85395713163578      0.88519100154788     -2.38546059253145
  Br          0.97736264028706      3.40402307225104     -2.23080459220832
  Br          3.16169935548610      2.94153201898357     -0.01670543156218
  H           1.76728692796477      5.02363065945404      2.36905976884977
  H           1.22615715801269      6.22587174222341      1.30654537417139
