19
Coordinates from ORCA-job NEB E -47.789015001230
  C           0.20240523710710      0.46259481661475      0.90819135391914
  C          -0.98660619560566     -0.23490715567884      0.61855251264742
  C           0.21615162790330      1.96345497597785      0.71435048483535
  H           0.64423218861887      0.19230081083254      1.86902329554654
  N          -1.19803791302724     -1.47283068139627      1.33509861370035
  C           1.32967392319384     -0.41115613462433     -0.38896747898253
  C           0.61408366956611     -0.30349160659492     -1.57903823334008
  C          -0.73657767407063     -0.83157237514117     -1.64950764670064
  O          -1.55198629636746     -0.15741421375964     -0.55922491446595
  I           3.31948512509231      0.33164362288092     -0.39656680928399
  H           1.32353886732200     -1.35008052838308      0.15043184605414
  H           0.93126283788029      0.39604091733734     -2.33607102577367
  H          -0.83364357169872     -1.89654725173337     -1.41750884937275
  H          -1.25805202106143     -0.58758065997721     -2.57095151809565
  Cl          0.04901281433047      2.50108886264007     -0.95611059354968
  Cl         -1.19546111565961      2.60691328177138      1.63370850465468
  Cl          1.66496385072114      2.70090982498326      1.42470130119634
  O          -1.90619438436369     -2.29894627397327      0.79782413790753
  O          -0.62825096988098     -1.61042023177601      2.40206501910345
