19
Coordinates from ORCA-job NEB_product E -47.817155806200
  C           2.54260312104812     -0.81997577021415     -0.69621140049637
  C           1.16763299178534     -1.42539607034688     -0.56657228792955
  C           2.36157199388376      0.69869925430015     -0.83326792593673
  H           3.07663627146966     -0.99540508471501      0.24798826676178
  N           0.82005522220187     -1.84230062141593      0.89385898856485
  C           3.27713098777454     -1.54203096424364     -1.84801031353938
  C           3.05273038827871     -1.00161225310037     -3.21503880288237
  C           2.41015657856887     -1.67775038573932     -4.15066679041266
  O           0.35325091557348     -1.63877709701843     -1.39479612244042
  I           5.42086310287150     -1.60768728169554     -1.44182680507980
  H           2.97947784926518     -2.59243023765074     -1.81529384863492
  H           3.48275151429092     -0.03307751015032     -3.42298855678433
  H           1.98521797006404     -2.65036426443210     -3.96459122504285
  H           2.27015992651856     -1.27363472879464     -5.13735317041575
  Cl          1.27450525806505      1.13956275699549     -2.17152732537829
  Cl          1.60360900061121      1.28716093480992      0.69095973168837
  Cl          3.90944419357137      1.52514857575910     -1.03983128894077
  O          -0.33618426823975     -2.08272571121981      1.08583207720805
  O           1.73178698239757     -1.89610354112778      1.67903679969112
