20
Coordinates from ORCA-job NEB_reactant E -51.985690218480
  C           1.84733297530964     -0.10925649459193     -0.03601167363828
  C           1.19532074062966     -0.71759511893371     -1.04561463880831
  C           1.86848791257084      1.36203955782385      0.02981710141055
  H           2.36861576261553     -0.66024904351977      0.72592511514689
  C           1.16555366941553     -2.21526081862829     -1.18997168114136
  C           0.21675814543186      0.93205576970096     -5.14165263427192
  C          -0.29833121790468      0.90226204413068     -3.92337501527995
  C          -0.20281706486513     -0.30215543580088     -3.03668803051774
  O           0.61637610015487      0.09332773473219     -1.93624405297357
  Cl          0.12423093917535      2.30499021920601     -6.15538046142429
  H           0.71633420618643      0.08790147069374     -5.59432688500584
  H          -0.77666137633027      1.76891145408754     -3.49354303775304
  H           0.23213712080343     -1.14599899672917     -3.57521411252100
  H          -1.19667834724651     -0.57029399524142     -2.66000891894987
  Br          2.83241729650588      1.98337295706268      1.58873607996764
  Br          2.72304142782370      2.14028452343596     -1.56819387243253
  Br          0.05406407498216      2.10887323417622      0.10841035018996
  Cl          2.04828585367401     -2.68026011841223     -2.68093125276794
  Cl          1.94727809149394     -3.04732291932984      0.16569156300432
  Cl         -0.51424631042627     -2.81672602386257     -1.27722394223371
