20
Coordinates from ORCA-job NEB_product E -51.983406666870
  C           1.56186678079769      0.13592661914844     -1.73630912041485
  C           0.85630798541518     -1.07941330402717     -1.15206663031650
  C           1.26673176520510      1.33275737552906     -0.84361747730337
  H           2.64559672792835     -0.02774743142053     -1.71607869576771
  C           1.72967482496438     -2.32585026883672     -0.92211291944701
  C           1.14434650044593      0.26004556681949     -3.22913538334684
  C          -0.09408903360775      1.04225490176059     -3.51089662391544
  C          -1.22537425355810      0.47458428379299     -3.88928764569916
  O          -0.31907758687431     -1.12309496960099     -0.94649220910641
  Cl          2.51912791579747      0.98501874778734     -4.14668161721203
  H           1.03886356729748     -0.75422535450229     -3.62284110256092
  H          -0.00819320238484      2.11742762974420     -3.43992655251293
  H          -1.32437465700179     -0.59399728981399     -3.98371712407230
  H          -2.10249234418735      1.06119645685529     -4.09573157030039
  Br          2.01602533668194      0.94959823429934      0.93168090522083
  Br          2.12554385288346      2.94271115802619     -1.49610700886871
  Br         -0.60769589622319      1.72337833792421     -0.56334515304571
  Cl          1.86810959473747     -3.05556205042694     -2.55210389004788
  Cl          3.35137614661484     -1.98023204814029     -0.30528947386044
  Cl          0.90322597506802     -3.44897659491821      0.16235929257777
