20
Coordinates from ORCA-job NEB E -33.542543431030
  C           1.17954253563843      0.50470147702421     -0.06981018291675
  C           0.74014221663523      1.42067814668006      0.87321705448022
  C           0.93931809081581      0.79721281075996     -1.52442092889640
  H           2.12235393739061      0.01580407816202      0.15017931320097
  F           1.32164424008212      1.30738190094459      2.12108813700486
  C          -0.21331906831172     -0.89867959876794      0.40386624798775
  C          -1.39617632653690     -0.18450977336686      0.29040291248395
  C          -1.62224841890302      0.89368242016926      1.18556479112979
  O          -0.39759858970615      1.97468847122543      0.85472081396621
  C           0.06022917183254     -2.05659074649198     -0.52021041108562
  H           0.17532714026534     -1.06997399259756      1.40297918951888
  H          -1.91604199333063     -0.18422992755503     -0.65716384259068
  H          -1.42015190221403      0.71150815316670      2.23650305091713
  H          -2.50049156892071      1.50355970445328      1.02114516529507
  H           1.01731495231220     -0.10276125079252     -2.12690031840168
  H           1.69547315575057      1.50044824174036     -1.87346814386218
  H          -0.03731719487376      1.25078817907673     -1.66805718261009
  F          -0.42240370091483     -3.21236267336688      0.05415501049233
  H           1.13128551063438     -2.22251925822266     -0.67522566612931
  H          -0.45688218764550     -1.94882636224118     -1.47856500998446
