20
Coordinates from ORCA-job NEB_product E -33.592069489190
  C           1.42294618330697     -2.38699672529326      0.35946084774290
  C           1.24572782452170     -1.15154492633025      1.19107653311064
  C           1.25873904591426     -2.03926898884587     -1.11697257607474
  H           2.43810201883274     -2.75890257494029      0.54578159590446
  F           1.58523277763511     -1.39487183461273      2.49392317061224
  C           0.42498337859609     -3.45321708480002      0.88382475463711
  C          -0.99560012420833     -2.97107443366205      0.78174469672098
  C          -1.71604469055084     -2.59575291919898      1.82076980160870
  O           0.87798229010423     -0.07449829009130      0.88881711286607
  C           0.60735233803616     -4.77756798220469      0.13883273929150
  H           0.65691342780796     -3.64022345226124      1.93837165575130
  H          -1.41514295241070     -2.95157508130156     -0.21464159698975
  H          -1.32229025048362     -2.61542812869618      2.82382502680222
  H          -2.73013835102570     -2.25237068101629      1.71383768293759
  H           1.41863728669130     -2.91457197766739     -1.73929304744853
  H           1.98437133726424     -1.27931837521012     -1.39703434237761
  H           0.26756743179363     -1.63828050418148     -1.30704747256621
  F          -0.01803573081881     -5.78343935460516      0.82926650296018
  H           1.66450464482955     -5.05697674734468      0.06879964828776
  H           0.15389211416406     -4.75611993773646     -0.85694273377681
