19
Coordinates from ORCA-job NEB E -32.376684548750
  C           0.78626424878021     -0.71955921472365      0.04447469656412
  C          -0.37110911973378     -0.58629149867316     -0.75695972234869
  N           0.62497005152626     -1.39998929555137      1.30592391355640
  H           1.68692655648570     -1.06823575940811     -0.45303419726871
  C          -0.28301905421455     -0.77496525028346     -2.24138806315140
  C           1.03960525229104      1.04422162159145      0.65405556570393
  C          -0.15999016392305      1.30639311924072      1.30998620755031
  C          -1.37755664436989      1.22582598987716      0.53219462408934
  O          -1.47117770767215     -0.08618630049573     -0.26704771365014
  H           1.94117890783745      1.01796004078400      1.25298018354666
  H           1.20150414886546      1.48183241213110     -0.32326441987636
  H          -0.22944058062484      1.18477934708669      2.37789101080099
  H          -1.44475683649840      1.95383926079056     -0.27895212219036
  H          -2.28505344783799      1.22377410456355      1.12849527945680
  O           1.46968390369418     -2.23463505317135      1.57447595746899
  O          -0.34333505318807     -1.13405454797796      1.98327331080979
  H           0.21443501444957      0.08456593705266     -2.69655209041984
  H          -1.28363481616576     -0.85184238116867     -2.65772132825449
  H           0.28450534029863     -1.66743253166443     -2.48883109238736
