19
Coordinates from ORCA-job NEB_product E -32.416205993030
  C           2.69212689653394      1.39363049579607      0.16987498168134
  C           1.37280322410896      1.14431649417545     -0.59192948904542
  N           2.83805134093713      0.34150774016546      1.21081882409927
  H           3.53361988968815      1.26286221875891     -0.51714160184947
  C           1.40244198091030      1.64551878439713     -2.00497898496916
  C           2.68050307829958      2.80538622391329      0.77689917074090
  C           1.33892922896203      3.17410278914373      1.33974725821170
  C           0.61054446220820      4.18066396471163      0.89848771790649
  O           0.43173016349763      0.61229767492496     -0.07968925228531
  H           3.42307816704109      2.83811364822229      1.57917618519632
  H           2.97242587062036      3.52207386612187      0.00724346935820
  H           0.99312685104122      2.54945042850015      2.15015844065389
  H           0.94136902823538      4.81601098057985      0.09165947556968
  H          -0.34517579728250      4.42048481685987      1.32944120140865
  O           3.14614266660271     -0.75072476907028      0.79925411591899
  O           2.64718406897433      0.63444140069817      2.36062547586033
  H           1.81650187298118      2.64915495519895     -2.04971650958020
  H           0.39878064630614      1.63651817761894     -2.42052514190511
  H           2.03651636033417      0.98679010928357     -2.59680533697109
