73
Coordinates from ORCA-job A2R E -121.373479218880
  Ru         -0.01175689866726      1.90998958030640      0.13733381813926
  H          -0.72333703193301      0.54633080662648      0.21106576403213
  N           1.04776356133480      1.24259195323583     -1.52133846030848
  C           0.41374832708723      1.01633089922239     -2.68720106008140
  C           2.37951922805567      1.05115448871430     -1.47755067108925
  C           1.08544388949088      0.60038267126787     -3.82787745137622
  C           3.10380106750024      0.64719009290712     -2.58840668363569
  C           2.45508583312616      0.41475309117330     -3.78883633578913
  H           0.53105295951011      0.42610320441770     -4.73718624859629
  H           4.17176484520845      0.52102235870742     -2.50496860835279
  H           2.99965046256893      0.10063696916091     -4.66468411745422
  P          -1.54510071399676      2.48396178199128     -1.45963005547861
  C          -3.40205045589419      2.14123326776236     -1.24528834627375
  C          -1.31066071985028      4.12485965392918     -2.40081931210424
  P           1.86854118626426      1.32318355941434      1.16094494101534
  C           2.70734410421507      2.75726561804662      2.11005239436368
  C           2.50288934626978      0.07031303649882      2.48267690964873
  C          -1.06900171633839      1.21622546958706     -2.72779263132199
  H          -1.54830235972204      0.28908324119752     -2.39046592644672
  H          -1.41424486919058      1.44450132204754     -3.73932942581273
  C           3.11161001667189      1.32322953163350     -0.19374472906064
  H           3.91214744909813      0.59580126470181     -0.03158175171637
  H           3.54529621524302      2.33065774770882     -0.23892358430826
  C          -0.94028253475693      2.53622329710214      1.60980033385882
  O          -1.52649536170872      2.93663564364695      2.51552023313386
  H           0.70902567459936      3.26477345422770     -0.01259509104709
  C          -4.15235853587312      1.81132610578983     -2.53692943047106
  C          -3.53912213858691      0.94170598240945     -0.30514979548358
  C          -4.02419850208563      3.34874003906229     -0.54277037033549
  H          -3.78259310112367      0.89220465020452     -2.98562744433351
  H          -5.20465575462756      1.66105263928827     -2.29668945974053
  H          -4.09322881655520      2.60475455742147     -3.27199121789915
  H          -3.08112713462529      1.15646820225541      0.65847687665311
  H          -4.59438509889467      0.72133866794695     -0.14732782524902
  H          -3.06736735689537      0.05193132816061     -0.71763428883404
  H          -3.38518391973834      3.66409139234784      0.28346696523756
  H          -4.16789592526306      4.18355439093011     -1.22340453331186
  H          -4.99846343804880      3.08102258010234     -0.13547668409903
  C           0.10829542452592      4.09026202537162     -2.97778505913413
  C          -2.28089989430070      4.38974213159816     -3.55001345254130
  C          -1.38258422138710      5.26007641305258     -1.37803948230912
  H           0.19794651187194      3.37686128112563     -3.79573182912473
  H           0.36824177876677      5.07504748954006     -3.36409368453167
  H           0.83067395691581      3.83935558894184     -2.20225551393782
  H          -3.29058761911737      4.57488488376042     -3.19559465637780
  H          -1.95372828938126      5.28394363542717     -4.08055211112130
  H          -2.29302000433290      3.56934666361533     -4.26519849366681
  H          -2.40204173228401      5.46196106599828     -1.06438925463259
  H          -0.79310007475306      5.00431318329767     -0.49776669822265
  H          -0.97620306171842      6.17444462160637     -1.80783102225831
  F           3.58117462768212     -0.61569762536953      2.07638866075594
  F           2.83826279313855      0.64175574213031      3.64486551582391
  F           1.55863561767855     -0.82066229234832      2.79525125195545
  F           2.77347758598991      3.87816021790649      1.37990836355175
  F           2.06554626207785      3.06740440284611      3.23767781723764
  F           3.99071761551876      2.47802852419666      2.42709241927433
  C           0.95626772424370     -1.75965391228478     -0.14236930970676
  O           1.69297633980866     -0.86224005815547      0.24658067918971
  C           1.07730280908081     -2.24885791512534     -1.53560213062237
  C          -0.05033948313359     -2.51814336678277     -2.30788443855401
  C           0.09089487504379     -2.91692697448179     -3.62368305357058
  C           1.35335964342867     -3.07955023856506     -4.17192718077551
  C           2.47886085896955     -2.82315116043734     -3.40645052584542
  C           2.34247910498355     -2.39262840885718     -2.10031696367089
  C          -0.10633991829749     -2.35838782881643      0.71568212520462
  H          -1.03532544350495     -2.38987511498784     -1.88444630133073
  H          -0.78630855980586     -3.11103949337087     -4.22332531510851
  H           1.45842539189057     -3.40744120661209     -5.19535677002279
  H           3.46332803257944     -2.95463439477412     -3.82985426149144
  H           3.21084596738222     -2.18620003630335     -1.49260384950409
  H           0.29779971905296     -2.57117785237258      1.70230809370801
  H          -0.53835416233709     -3.25334481763384      0.28033457216951
  H          -0.87385195814444     -1.59339971429051      0.86126516311909
