73
Coordinates from ORCA-job A3R E -121.353207332050
  Ru          0.68837395905961      3.64994121317497     -0.02285210524025
  H          -0.71569288748719      2.62641184550421     -0.31918065493431
  N           1.49693843145124      2.63912065974802     -1.68565961943757
  C           1.08277040670870      2.90784949573274     -2.93443895743940
  C           2.47876386566551      1.69898552746988     -1.49580029365952
  C           1.60953432258150      2.29521805647460     -4.05033564049587
  C           3.06714975800118      1.06533484639777     -2.62586692279566
  C           2.63890930212567      1.35801335901685     -3.88437645647057
  H           1.23687279631679      2.54075731225865     -5.03195659833144
  H           3.85367389951918      0.34914545158852     -2.45042765515826
  H           3.07570924461332      0.87821939189541     -4.74742699840322
  P           0.01144723148741      5.09205171907369     -1.68272013154160
  C          -1.73775912028783      5.82535580030055     -1.70179336933718
  C           1.28264208363704      6.39081662188034     -2.21599856260912
  P           1.97877040365808      2.11290143325304      1.06034406704974
  C           3.27345931731225      3.07761286702623      2.09128766252754
  C           1.83654748680637      0.79925089338095      2.44832880421950
  C          -0.02907455495353      3.91164199871019     -3.10103882536488
  H          -0.99057306182323      3.38250697012360     -3.05910105388345
  H           0.03722854521300      4.41413788388439     -4.06930041031702
  C           2.88508785784962      1.36641725193379     -0.20404356384729
  H          -0.31604889107312     -0.14676769562636      0.22398666544496
  H           3.64668681483115      0.62746352518272     -0.01290123892877
  C          -0.04308074286843      4.50522183440158      1.44277625909882
  O          -0.51764806918200      5.03287773704891      2.34806241928310
  H           1.91051314953662      4.51400159574989      0.11327075792347
  C          -2.31324945726080      6.08253965519586     -3.09351931066074
  C          -2.61753206524615      4.78840300228626     -0.99769989724454
  C          -1.75134081397889      7.09990136988321     -0.85955050377100
  H          -2.40531018797624      5.15996105248611     -3.66211739038055
  H          -3.31140827533210      6.50650310881353     -2.98714803907726
  H          -1.71491442277968      6.78386353736765     -3.66383890642874
  H          -2.26267590653303      4.62150410976846      0.02125126677743
  H          -3.64363948260339      5.15010664193447     -0.94230591823228
  H          -2.63008194424710      3.84211509924110     -1.53798127585071
  H          -1.20431288394477      6.93961926445892      0.06982426482126
  H          -1.31014728791897      7.93714929816914     -1.39257709092461
  H          -2.77706313041793      7.36918514393377     -0.61040939382644
  C           2.55272364617177      5.62183424504594     -2.59378106851263
  C           0.85949750567402      7.24819155634194     -3.40785564299371
  C           1.60174696077921      7.28011322358132     -1.01228448411438
  H           2.41778049813708      5.03481114339344     -3.49978242207776
  H           3.36337429184013      6.32701305447975     -2.76937499857189
  H           2.85818852863321      4.95937234233071     -1.78270344495494
  H           0.04966794525054      7.92581943474150     -3.15199445156206
  H           1.70820281515662      7.85613527066015     -3.71907437243877
  H           0.56245954318976      6.63780450230187     -4.25864062007677
  H           0.80548429136535      7.98722085648742     -0.80353091408581
  H           1.76558183009534      6.66488370216431     -0.12634208568607
  H           2.51053310673955      7.84644543919035     -1.20659502167248
  F           2.91171775798354      0.00327606234275      2.45444896889173
  F           1.74747717445956      1.37553746226376      3.65454636909217
  F           0.77509378898682     -0.01878258116117      2.35386818950174
  F           4.01545122507139      3.81242878157203      1.24614555204621
  F           2.69971734045514      3.93797333079721      2.94637160340451
  F           4.13877427070077      2.33775022320651      2.79804894767088
  C          -1.14817528319219      1.59623230400678     -0.11918319729161
  O          -0.01890653362034      0.74980186912569      0.01620153006146
  C          -1.96113367479129      1.19534061411400     -1.33535652193197
  C          -3.33548063569392      1.38968966986179     -1.41742056761776
  C          -4.02266292271343      1.03685210287354     -2.56648236609939
  C          -3.35071226109285      0.48878696245988     -3.64556293490719
  C          -1.98334211913064      0.28518622289621     -3.56867421222293
  C          -1.29489763574934      0.63435093228447     -2.42180560893633
  C          -1.94698239841837      1.63739502345271      1.18236675545111
  H          -3.88040748417194      1.81349750017677     -0.58869941476105
  H          -5.09006119907526      1.19222788650264     -2.61595151107387
  H          -3.89105302427552      0.21837498545361     -4.54010300508649
  H          -1.44791019893101     -0.14500019628691     -4.40158856375327
  H          -0.22806480397087      0.47269040839771     -2.36434022596554
  H          -1.26419712743471      1.80219336390578      2.01630628960947
  H          -2.45834819194570      0.68731246357212      1.33522866489389
  H          -2.67953271694229      2.43951095833990      1.17922940321800
