73
Coordinates from ORCA-job TSA2R_3R E -121.315364570070
  Ru          0.29207287370535      0.66345736588334      1.29881168388255
  H          -0.01454839298821     -0.88449273741884      1.45613641878209
  N           1.50600666506896      0.18170884398495     -0.36788444605560
  C           1.01173665613667      0.13454482469739     -1.61249792937908
  C           2.84922078526782     -0.00269006326179     -0.17526536950881
  C           1.81247297042389     -0.00445083995649     -2.72998834710101
  C           3.70542853833323     -0.15209898123374     -1.29595971881076
  C           3.19395107549190     -0.12559433871180     -2.56218884400925
  H           1.37053569385378     -0.01985295072206     -3.71332085010285
  H           4.76354337782377     -0.26184171265139     -1.11834418419032
  H           3.84048560604632     -0.21193854711070     -3.42248102740684
  P          -1.21649972965558      1.14644348095097     -0.37228259331771
  C          -2.99732059020551      0.49132556177321     -0.31262788934993
  C          -1.19740753074125      2.91578326086884     -1.06449880657588
  P           2.24616510125732      0.40798146688446      2.37667086457924
  C           3.12630324794863      1.95528421456201      3.07466221413235
  C           2.70725744398414     -0.62903211409044      3.92743424056414
  C          -0.48315533890649      0.17293399269697     -1.76414922027820
  H          -0.85268079995412     -0.85530456777195     -1.65957821006642
  H          -0.77840578075253      0.54493829299549     -2.74841642621830
  C           3.34981026057333     -0.10916892430526      1.13435206553404
  H           2.54382322047371     -2.11564223858830      1.26308987904494
  H           4.41274750085971     -0.17974456216411      1.32255645888349
  C          -0.80664465266657      1.03333708257669      2.74076184742666
  O          -1.51970031262284      1.23708212372122      3.62000093550139
  H           0.77363162727273      2.12281147320875      1.28022159317472
  C          -3.62472017419729      0.19354297119799     -1.67467572228942
  C          -2.92232477140419     -0.81826575472182      0.47674367441975
  C          -3.86113986382519      1.46917419084489      0.48319188536598
  H          -3.07284169936366     -0.57873001947176     -2.20582842739076
  H          -4.63920132095409     -0.17263626668922     -1.51801470966343
  H          -3.68620262002770      1.07273517889991     -2.30540183990887
  H          -2.58553664235621     -0.62761545303394      1.49543214340812
  H          -3.90644194797109     -1.28425635497096      0.51840698354422
  H          -2.23214752022535     -1.51798595343851      0.00702958801702
  H          -3.33298397431092      1.78571763536568      1.38328280346276
  H          -4.12443987513220      2.34566249630727     -0.10274899302450
  H          -4.78740966269839      0.98237071934240      0.78672942643820
  C           0.23416827763798      3.17634461660872     -1.54481114899316
  C          -2.14826510823197      3.16658839773148     -2.23368814967642
  C          -1.51174922517546      3.88267566805816      0.07840178062608
  H           0.46933766117278      2.61308300235759     -2.44599571883935
  H           0.35513585697089      4.23467934293561     -1.77092829406827
  H           0.95658354127433      2.92004620566969     -0.77045683196643
  H          -3.18895144101093      3.14187888147493     -1.92298283380810
  H          -1.95073005666624      4.16088140100022     -2.63355751572746
  H          -1.99611323063125      2.45229489832807     -3.04065359179374
  H          -2.55982310079136      3.85135766162598      0.36072568766204
  H          -0.90956067665387      3.63842592893294      0.95287227537758
  H          -1.27535390151871      4.90146235461536     -0.22466882623999
  F           3.77866321023575     -1.40883582974576      3.71824217863817
  F           2.96338772057112      0.10921337491783      5.01142018878988
  F           1.69908449960432     -1.44573686760599      4.27068736508829
  F           3.25602858616352      2.84158375535480      2.07673892568308
  F           2.51208637989153      2.58245277405028      4.07956875154135
  F           4.37654215231050      1.66799699268880      3.47914540153241
  C           0.75853352830308     -2.88462036238258      1.42517608012906
  O           1.95103222964519     -2.59232998910973      1.89038575437924
  C           0.51728378032518     -3.09962839334049      0.02068958682132
  C          -0.73875983264742     -3.54369158466832     -0.43535445248350
  C          -0.96880187426940     -3.75327239500062     -1.77739267206744
  C           0.04215898549952     -3.54557141921259     -2.70734637005950
  C           1.29705152202363     -3.14635850908014     -2.27362660065554
  C           1.53597590625201     -2.92259605465628     -0.93399838406627
  C          -0.16703338826904     -3.42749692017255      2.46294452471439
  H          -1.53142541964374     -3.72579062060553      0.27163082650359
  H          -1.94208673759674     -4.08645163825235     -2.10660669776379
  H          -0.14355788084032     -3.70920779865975     -3.75760376660196
  H           2.09719275039561     -3.00963097929205     -2.98475597014438
  H           2.53206742650885     -2.63208940587331     -0.63259306033293
  H           0.19252183551285     -3.12829173116476      3.44274774396847
  H          -0.17346310602274     -4.51738151707708      2.40264244967967
  H          -1.18260031389138     -3.06747603689986      2.33364021263988
