21
Coordinates from ORCA-job NEB_reactant E -45.967748757170
  C           1.95554666250244     -0.26142160909277     -0.37096386352544
  C           1.32403428667606     -1.37582990770244     -0.01226908468625
  C           1.61100028119795      0.69110880677373     -1.47230107030390
  H           2.81955912571126      0.04329439010973      0.19819194494127
  C           1.77223079862673     -2.21311731068986      1.16533292199596
  C           1.46014949147911     -2.11073677210722     -3.98939998360228
  C           1.19062537085519     -2.46058424959605     -2.73309569483468
  C           0.01921922318117     -1.94477786085966     -1.95965462968776
  O           0.22410816526807     -1.96903876797354     -0.55821122857280
  C           2.55320131142518     -2.64172867432639     -4.70317837818039
  H           0.84580255843991     -1.40540104235260     -4.53594101890211
  H           1.81616420995774     -3.17334698736092     -2.21239729183162
  H          -0.83067425142899     -2.62528254794832     -2.09947084001909
  H          -0.28347746612092     -0.94970909886769     -2.30676807436081
  F           2.44923946541347      1.77172756200899     -1.41307800229454
  H           0.59279646843462      1.08655498278972     -1.37021607749213
  H           1.75029809705013      0.25186957863839     -2.46856895078842
  Cl          2.99721986357037     -1.44949333134295      2.17453619850573
  Cl          0.36430147291852     -2.59613060274052      2.18232135505325
  Cl          2.44382149780673     -3.74833353904088      0.53485088919961
  N           3.44123336703527     -3.05892301831875     -5.29511912061362
