15
Coordinates from ORCA-job NEB E -30.894298370110
  C           0.21626579676862      0.06776520750957     -1.42327417764106
  C           1.36872881456746      0.50319719157984     -0.75028858787246
  Cl          0.31676050899115     -1.16627462436903     -2.62581107326831
  H          -0.50992098269880      0.83560217065787     -1.67156167815437
  Br          2.87707709345672     -0.72790021996551     -0.69323393426160
  C          -0.71610731263851     -0.70460407944353      0.15568192366199
  C          -0.70583761948810      0.35098548054937      1.07711298586156
  C           0.53169999931225      0.78225153843366      1.58490017685161
  O           1.30286314850960      1.36825297710812      0.15905833421057
  C          -1.96180482929583     -1.09917999154705     -0.40927774337223
  H          -0.02848670943300     -1.53398484024076      0.30326486794029
  H          -1.53857669614063      1.04012221183261      1.07582333807054
  H           1.26655858935155      0.03243425917431      1.85979181641617
  H           0.54953112922876      1.66376386430699      2.20945304306267
  N          -2.96875093049125     -1.41243114558646     -0.85163929150537
