15
Coordinates from ORCA-job NEB_reactant E -30.918856152710
  C           0.54540857378605      0.06041997307179      0.20949937904441
  C           1.33924570805624      0.13145316115849      1.27496580322839
  Cl          1.14007349963822     -0.32483459345728     -1.35636404945750
  H          -0.51812600413998      0.22368200820836      0.25800198343079
  Br          3.19722031471494     -0.19095006391353      1.17748864435053
  C          -2.57905860619540     -0.15156075155893      2.38458644875380
  C          -1.29790471341726     -0.31218393466097      2.70991551370931
  C          -0.32225048412074      0.81624731152619      2.83093625201117
  O           1.01084253674330      0.43452116897726      2.54576359659978
  C          -3.48199236745879     -1.23188769352489      2.31921893537891
  H          -2.99749018340974      0.82136562805331      2.15833511413117
  H          -0.90470697378631     -1.29437794334698      2.93595552760253
  H          -0.27924440982597      1.14506649947286      3.87653542345588
  H          -0.61823481728842      1.66959057988960      2.20627935917267
  N          -4.22338207329614     -2.10325134989529      2.25608206858816
