19
Coordinates from ORCA-job NEB E -29.593628054420
  C          -0.85776323359831      2.82148945128371     -1.21364753064232
  C          -0.17255062581747      1.69963486386650     -1.42547986094396
  N          -1.48978276891917      3.13585176588429     -0.01444434658136
  H          -1.02534461985558      3.50908338825303     -2.02736590005680
  H           0.22653695971387      1.44623322351003     -2.39755498507611
  C           0.03789913219079     -2.06079261597482      0.53579944965718
  C           1.02476790203182     -1.18622463368988      0.43598834846527
  C           1.07020836058437     -0.14274343365040     -0.64339822876876
  O           0.02165838985090      0.77700260015895     -0.41524584699953
  C          -0.08441967319490     -3.09097681582036      1.61006059130946
  H          -0.77198915780688     -2.07192604266210     -0.18004710136458
  H           1.81849438235530     -1.17348195748726      1.16780668201453
  H           0.94060794257530     -0.61215162737084     -1.63163513435627
  H           2.03932584771709      0.37656749306862     -0.63445935893414
  H          -1.47796155276341      4.11746287090064      0.22154863471635
  H          -1.17023418177146      2.54725460530105      0.74305664252983
  F           0.98173958090978     -3.07334768691170      2.47309621149918
  H          -0.12697793880720     -4.10054445269827      1.18152709236695
  H          -0.98421474539486     -2.91839099596120      2.21439464116506
