19
Coordinates from ORCA-job NEB_product E -29.599195669230
  C           2.07014494431931     -2.22602730606248      1.18444233052102
  C           0.66574553852177     -2.25721479865085      1.74556132623397
  N           2.11978883931480     -1.15483160361901      0.20522929701703
  H           2.72606245413340     -1.93003004224917      2.01603340787825
  H           0.24451617403934     -1.24088517407617      1.85013527072364
  C           2.52336050018002     -3.62125171930140      0.67228013421439
  C           3.76557773883154     -3.48749997528470     -0.15974418512990
  C           3.81845859014672     -3.71515610110176     -1.45836691859285
  O           0.03921071232077     -3.23690375801372      2.03514830395550
  C           2.78195554180743     -4.56317533393448      1.85132458868383
  H           1.71522646229460     -4.05571318791616      0.07445410309722
  H           4.64751239898684     -3.17892067579189      0.38645167419574
  H           2.94998138880696     -4.02677239020862     -2.01662900496631
  H           4.73078600531777     -3.60560168234993     -2.01926839915270
  H           3.07083865250250     -0.99862698352314     -0.10797611232622
  H           1.56290511618956     -1.39184270281254     -0.60896076368437
  F           3.75736050889549     -4.04905900666269      2.67434676540648
  H           3.14681725027519     -5.53368278879658      1.50023986461626
  H           1.88435118311602     -4.69160476964469      2.46049831730903
