19
Coordinates from ORCA-job NEB_reactant E -30.993997835280
  C           1.77388668324179      0.36351784925220      0.10087249807599
  C           1.35531280343877      1.09619712785983     -0.94820325510832
  C           1.96235862470858      0.76586871395879      1.42743089497475
  H           1.98641148521288     -0.68368444834468     -0.06379253797236
  C           1.18558725899831      0.48293937433272     -2.30523985149055
  C           3.28877507106815      3.74990228457079      1.49044565881870
  C           2.69732559747042      3.57292041802979      0.31164065872377
  C           1.24789224624157      3.23940473104434      0.13631379810107
  O           1.02734884539827      2.40240038486005     -0.98457056613184
  C           4.64892195496607      4.09962247122061      1.59485429039245
  H           2.76082242861498      3.62171246026864      2.42580046636254
  H           3.25529488442411      3.68707567917577     -0.60927542849795
  H           0.69748628271585      4.15740204652058     -0.10659339372958
  H           0.82195022240571      2.80634332682248      1.04703653654465
  N           2.12410978273726      1.02725823882944      2.53570911430081
  H           1.98623255003350      0.82172102332535     -2.96207497313850
  H           0.24374209038669      0.81459747237784     -2.73694455452080
  H           1.20384622063684     -0.60067474640442     -2.25521850900174
  N           5.75649496730025      4.38317559229987      1.68010915329692
