22
Coordinates from ORCA-job NEB E -39.238721232380
  C           0.00168797017623      0.03057629185446     -0.96478399295560
  C           0.44957888968007      1.33360703058440     -0.60028429463354
  C           0.88391733584947     -0.88973921270770     -1.70336765835494
  H          -1.01929838985328      0.01815187907462     -1.33074153583659
  N           1.77839022144941      1.62082952146712     -0.45606213195111
  C          -0.44254876848838     -0.62741903126666      0.91051419955012
  C          -1.37131740626208      0.33941939161087      1.29840182556168
  C          -0.94623526079621      1.65810899781271      1.47995363799883
  O          -0.39348015093670      2.16235047444297     -0.12724313883620
  C          -0.89159437635986     -2.05410006601064      0.78551829448059
  H           0.56436056694193     -0.51388703027194      1.30237741960757
  H          -2.41427617347717      0.15941561282120      1.07871727383609
  H           0.00178574070257      1.82778923978928      1.97542857308674
  H          -1.68576878567633      2.42226588762936      1.66589343623739
  Br          1.74278525079031      0.02694797794942     -3.32976735443428
  Br          2.38656908811542     -1.57977557751582     -0.65856876385525
  Br         -0.07393913457014     -2.40552577827739     -2.45701494136583
  H           1.98379991642932      2.57426013436895     -0.20219316185763
  H           2.47921991936266      1.16069747819961     -1.01194083494104
  H          -0.11271103583028     -2.70229162399034      0.39499917335355
  H          -1.78182721331582     -2.14339258501764      0.16731928835628
  H          -1.13909820393112     -2.41828901254684      1.78284468695316
