22
Coordinates from ORCA-job NEB_product E -39.285008335680
  C           1.36100372554592     -0.89246192202486      1.84040158947837
  C           2.72545885727676     -1.06863086722790      2.53882151089309
  C           1.35563110495584     -1.24084750772245      0.36465121552922
  H           1.18711103833608      0.19330947296131      1.86846566660424
  N           3.43541632966868     -2.17223868035086      2.23739120207829
  C           0.26705435810495     -1.51880914679917      2.76214051511199
  C          -1.08622207339435     -1.56642753957529      2.11117618657945
  C          -2.06019855916165     -0.71840076560752      2.38321376832711
  O           3.10315691661530     -0.24190209423196      3.33264985820527
  C           0.61101677367716     -2.89963662179130      3.32754025123800
  H           0.21319149109587     -0.82895306823276      3.61225309892618
  H          -1.25290132731295     -2.38401627333464      1.42195814721090
  H          -1.92779120875755      0.09396240560364      3.07913430861195
  H          -3.02532249510050     -0.79385819972654      1.91374962540030
  Br         -0.11217873315590     -0.34093426233008     -0.58417724187003
  Br          3.01248576181239     -0.57536719645029     -0.48189989264163
  Br          1.22069159956507     -3.13216617103136     -0.08593126802684
  H           4.32416693985384     -2.28986384038196      2.69633935472473
  H           3.11474516759144     -2.91126551131104      1.63617032679216
  H           1.52343079586648     -2.86380886101031      3.91727692879492
  H           0.71364178504944     -3.65679169434125      2.55570214272622
  H          -0.19978824813233     -3.20769165508344      3.98457270530610
