22
Coordinates from ORCA-job NEB_reactant E -39.270411859660
  C           1.35811926785891     -0.47284992494284      0.12558960430707
  C           2.00194306162246     -1.35343149839863      0.93999917526449
  C           1.94872629539308      0.05850988076904     -1.08239782109702
  H           0.37787480342943     -0.11204717649306      0.38204342636994
  N           3.25221444082565     -1.82860907982605      0.70354586217780
  C          -0.77837990612458     -2.10956079786374      4.64635265112663
  C          -0.24888124893248     -2.55856730443139      3.52011883086715
  C           0.09749482596239     -1.69181560198087      2.35099015804615
  O           1.46926424244333     -1.91058809795742      2.03920236701072
  C          -1.13700721783403     -2.98326129819568      5.80608117672463
  H          -0.98464648678402     -1.05289916038531      4.75434734800051
  H          -0.02669913570358     -3.60812261890139      3.38964987612506
  H          -0.06969621970648     -0.63471115950554      2.59190192660362
  H          -0.51826434225997     -1.96466954603895      1.48191806677049
  Br          0.73228665855150      1.21861074525468     -2.03942269918818
  Br          3.63818193520581      1.18997154375571     -0.71669043564578
  Br          2.56971592000362     -1.33952516522640     -2.36047636204482
  H           3.63390453119331     -2.41141062210861      1.43060551664990
  H           3.91277035839017     -1.26250700160145      0.19605620930620
  H          -0.25121229216821     -3.48592119761887      6.19136861224079
  H          -1.84409006723638     -3.75286249246655      5.50077286292096
  H          -1.58191942412994     -2.40263242583668      6.60844364746369
