24
Coordinates from ORCA-job P E -39.805969756750
  C          -1.44470134321995      0.44982332855188     -2.34525074984480
  C          -0.06285198358688     -1.60250229845212     -1.17889422610913
  C          -1.37851501651053     -1.90559010218765     -1.81220826928225
  C          -2.04499916034610     -0.92606560573122     -2.40264957734515
  C          -1.07787898802061      0.73754450532521     -0.87935714479278
  C          -0.13531647286125     -0.33028275770133     -0.29020154002635
  H          -1.75036204308117     -2.91723297718323     -1.78612710753004
  H          -2.99768613198582     -1.06596103504476     -2.88407424477807
  C          -2.37777872360367      1.50334121520020     -2.91892268448589
  H           0.29603778641224     -2.44303579950074     -0.58386146753890
  H          -0.52928809267690      0.47449579016938     -2.95012517576343
  H           0.66532556815318     -1.41992456339361     -1.97500118157957
  H          -2.00099153612788      0.76028879868560     -0.30095438382860
  H          -0.54324974279554     -0.63399051245814      0.68027573461637
  H          -0.60183901864097      1.71213711480730     -0.78464602066659
  N           1.16028336884358      0.25592295948435      0.01322712728380
  Cl         -3.91744790321443      1.56518844372770     -2.03767225663985
  Cl         -1.63442200296898      3.11955933945862     -2.85670676553041
  Cl         -2.73267484738896      1.14248762157730     -4.62934631476115
  C           1.96987249459988      0.71456537293575     -1.09749804062070
  H           1.70054208273069     -0.38938986589469      0.57967624883809
  H           1.40322668569499      1.42682007544176     -1.69425650926473
  H           2.33285888852503     -0.08438210528857     -1.76055379440566
  H           2.83736613207003      1.23042305747099     -0.68768165594423
