24
Coordinates from ORCA-job R E -39.724927769730
  C          -1.45308019723602     -0.04270431221443     -3.11614088444043
  C           0.09659852742690     -2.37634365613078     -2.01399002660180
  C          -1.16045838016104     -2.05901267365342     -1.72549154681609
  C          -1.82807850235120     -0.82961838264978     -2.10766483535898
  C          -1.01080574956742      1.26283464185861      0.28557641985362
  C          -0.16496297416012      0.26273859109199      0.50735875273234
  H          -1.76055526393813     -2.73695248678360     -1.13323754191383
  H          -2.70029887749110     -0.57007004693060     -1.52526859995090
  C          -2.12083740423581      1.21387391244496     -3.52006823627471
  H           0.52912802009796     -3.30653104241830     -1.68851881613264
  H          -0.60555641709972     -0.29291807962299     -3.73750982941402
  H           0.74239723049307     -1.71285881477738     -2.56117090158202
  H          -1.95901659346424      1.29607696392115      0.78897112548985
  H          -0.42149006401930     -0.52279638587601      1.20703397235092
  H          -0.80162885881559      2.06640007363200     -0.39545526026268
  N           1.04054540700712      0.04010383942149     -0.12590228332155
  Cl         -3.46205386303171      1.69503307122490     -2.47913164141400
  Cl         -0.92606398490559      2.55106175798150     -3.53522539714343
  Cl         -2.74972930483814      1.04732764744150     -5.19663392649885
  C           1.62693337797828      1.07346717243320     -0.94487948777001
  H           1.70914452383245     -0.47512122629912      0.42724608393057
  H           1.85669309736062      1.98691972170038     -0.38145397255135
  H           0.93237294065887      1.32851715395067     -1.74408298700049
  H           2.54591331045985      0.69371256025406     -1.38802017990949
