25
Coordinates from ORCA-job NEB E -42.388420581280
  C           0.37111683370796     -0.53503854541823      0.90228721352948
  C          -0.98903022053816     -0.64690791369031      0.49699700015136
  N           0.66530751191347      0.02733408098752      2.11694980090947
  H           1.09119176202835     -1.25727806169284      0.54398673863541
  C          -1.39901145772685     -1.50865422146695     -0.67662205470023
  C           0.63914153333226      1.03635808581084     -0.42330456475479
  C          -0.21422098353123      1.99480195348389      0.14657806564593
  C          -1.58446946289023      1.82569145783239      0.05741898445195
  O          -1.80681590992458      0.20965373387165      0.95191385612755
  C           2.09729524901088      1.29708975943757     -0.46728736749137
  H           0.30035266845722      0.54292039583213     -1.32979890173126
  H           0.18251184752331      2.63364144186800      0.92373900522553
  H          -2.01867955681892      1.43919733734216     -0.85297739889832
  H          -2.23128007044962      2.47059536707817      0.62877407259748
  H          -0.11559249977614      0.42252674664575      2.61583035779792
  H           1.43217937978840     -0.32137419936871      2.66029508987665
  C          -0.40984415048990     -2.59049890610295     -1.08734180812999
  H          -1.60735241171692     -0.85289389386253     -1.53125906181903
  H          -2.35458147653622     -1.96526708790102     -0.40569674458630
  H           0.50764313082486     -2.16741272346526     -1.48975993184201
  H          -0.85346739155889     -3.21452089197575     -1.85954644149953
  H          -0.15980003733209     -3.22621710007474     -0.24140424276852
  Br          2.46981763210503      2.73236740657288     -1.82468602773374
  Br          2.87040867947154      1.91659314156069      1.20042635905501
  Br          3.11717940112648     -0.26270736330433     -1.05551199804863
