25
Coordinates from ORCA-job NEB_product E -42.427417367390
  C           3.04244458665732      0.49193987984427     -1.11512393735934
  C           1.60994297319921     -0.04651769451515     -1.28560412923068
  N           3.27146843700307      0.97742737161694      0.22905725456174
  H           3.76432218364962     -0.30112786253539     -1.33496049734619
  C           1.44107932155454     -1.32498246165790     -2.06823564535576
  C           3.22680015047273      1.65202035923345     -2.13356602167479
  C           2.42978808716250      2.85743663748276     -1.72630181856954
  C           1.37020519665206      3.28257551177611     -2.38704824377056
  O           0.69150943653564      0.51911391065722     -0.74788401090385
  C           4.68861691630730      2.02961907460504     -2.30732748927529
  H           2.87234824985101      1.30472903779408     -3.11217777329975
  H           2.77469708410469      3.36756885697266     -0.83806014253137
  H           1.00941030527527      2.78751597998346     -3.27396074702935
  H           0.81515094157963      4.14414352426752     -2.06156502102425
  H           2.44920097089541      1.47820039989135      0.55474368458102
  H           3.45056443931751      0.21482602549700      0.87068158703633
  C           2.03066397762668     -1.29520389465976     -3.47705925931883
  H           0.37336983977054     -1.54814943211217     -2.11602247406608
  H           1.92962261601216     -2.11732287482703     -1.49287075851006
  H           1.56866813514944     -0.50871835637494     -4.06961495821318
  H           1.83257176213230     -2.24428578472422     -3.96862900212303
  H           3.10755346873646     -1.14708836083705     -3.46306538084030
  Br          4.82636606832729      3.46907658993468     -3.63615740822090
  Br          5.55324698578995      2.64121733054919     -0.68993287860070
  Br          5.72398786623764      0.52438623213789     -3.00761492891529
