17
Coordinates from ORCA-job NEB E -33.770043301620
  C           1.07020210393332      0.43462080693576      0.08568885234759
  C           0.32421486368370      0.73418452510090      1.22828415850534
  C           0.79718105259932      1.26523772831428     -1.14976768433661
  H           2.12482877138280      0.21926699258961      0.22641172134501
  Cl          0.97918812220216      0.19035953990638      2.76964057488936
  C           0.23627831365151     -1.29324127298528     -0.29500059163269
  C          -1.11946574258471     -0.99212844202306     -0.36383668620135
  C          -1.72709341475949     -0.47702190574909      0.81896570507847
  O          -0.94095691808682      0.90063094148141      1.16729141793906
  Br          1.09094586271235     -1.98173194414863     -1.85780659346817
  H           0.62635322558797     -1.79459776067267      0.58379840005629
  H          -1.55893959795515     -0.76128858846336     -1.32255171757788
  H          -1.54917388785935     -1.03595143109912      1.73503980383673
  H          -2.75411835289381     -0.14637287845774      0.72440610214359
  F           1.55357562818574      2.40794417357841     -1.08481565831291
  H          -0.25026338826940      1.57826520416280     -1.19736958311817
  H           1.09724335846985      0.75182431152940     -2.06837822149367
