17
Coordinates from ORCA-job NEB_reactant E -33.795065974190
  C           1.79713954080007     -0.01219466134322      0.01817527195522
  C           1.02350503880995     -1.00248883280984      0.45295725799737
  C           2.17900979193708      0.14792061936018     -1.41800079431501
  H           2.19524111442567      0.71098778018990      0.70907555790392
  Cl          0.64343401163122     -1.12564353058858      2.14466860405242
  C          -0.15178562164596     -5.20219737928124     -1.17910545702805
  C          -0.50618042227886     -3.94154935386583     -1.00850602824492
  C          -0.05091890705295     -3.11373515480338      0.15013502165845
  O           0.45683940400135     -1.89295227560327     -0.37590027448461
  Br         -0.76702137231668     -6.24110310507619     -2.62677760062267
  H           0.49178319579416     -5.74741821806265     -0.50668845699826
  H          -1.14672288461974     -3.43492270824847     -1.71520158716675
  H           0.72115139722656     -3.63332630106521      0.72989315270014
  H          -0.90523674618590     -2.90255787524917      0.80940206694507
  F           3.53466908825365      0.35849068509198     -1.52609988407965
  H           1.69873920288785      1.02737797154946     -1.86433376712366
  H           1.94035416833251     -0.74808766019445     -1.99689308314902
