17
Coordinates from ORCA-job NEB_product E -33.811446135540
  C           1.72308823076633     -1.65491452422367     -0.40369784760137
  C           1.12360276644329     -0.92338666466487      0.76912910507629
  C           1.31633044510958     -0.90851245189533     -1.68113784944376
  H           2.81398466941663     -1.64894394706662     -0.30465082937697
  Cl          1.81393405246056     -1.43750818456249      2.30688973801778
  C           1.24500719584519     -3.12392109183084     -0.35352623278848
  C          -0.14094511000671     -3.32392258279811     -0.86462286486032
  C          -1.15566249216258     -3.63882491335569     -0.08139492960455
  O           0.27491489149277     -0.09725471755125      0.74254059362514
  Br          2.48533243120659     -4.26583570253800     -1.38820748453319
  H           1.33887505161482     -3.48754755523330      0.67249561636068
  H          -0.26798194362769     -3.22100493237109     -1.93312975824052
  H          -1.03845264215870     -3.76274271239714      0.98304100561668
  H          -2.14695062606509     -3.78159627140045     -0.47373387628445
  F           1.77833276547862     -1.54999062421940     -2.79259461536876
  H           1.74953000930688      0.09676901441425     -1.68354457037588
  H           0.22746030487952     -0.83976213830600     -1.76575520021832
