34
Coordinates from ORCA-job P E -44.042206572960
  C          -1.06633906335918      0.53824904896099     -2.04085211563260
  C          -0.84621006565787     -1.48852629456181      0.17912560318504
  C          -1.37954900320881     -1.79290002547717     -1.18475469349308
  C          -1.46759524306186     -0.90511274765251     -2.16037201929176
  C          -0.88205265028843      0.90830651577614     -0.56436080707975
  C          -0.07984785201179     -0.16904882732490      0.17257404626273
  H          -1.69052891137375     -2.81500917211178     -1.35073041091963
  H          -1.82449442129633     -1.22260580655031     -3.12900592392074
  C          -2.05211715479934      1.47944751482599     -2.78807851373367
  H          -1.67171312431653     -1.43609442423854      0.89585846946767
  H          -0.09163096568321      0.64959709964142     -2.53792997592310
  H          -0.18396758879274     -2.29802170689115      0.49400385877745
  H          -1.85499814548891      0.99461164773513     -0.07918213109211
  H           0.10528962114423      0.16712459140758      1.19969044715340
  H          -0.36026541438156      1.86017271576853     -0.47615597296766
  C           1.28507033045895     -0.35428604946076     -0.46514743867047
  C          -3.49810947290504      1.21216145149100     -2.36340260270056
  C          -1.70782205220669      2.94594532663920     -2.50386511197013
  C          -1.92513211963853      1.25843417559319     -4.30024767165530
  H          -3.63956126543586      1.41142427712843     -1.30418687634799
  H          -3.77333951063294      0.17828062700934     -2.55505630700034
  H          -4.17446148352008      1.85768866136779     -2.91976309649773
  H          -1.92740651798947      3.21377461603958     -1.47419175907597
  H          -2.29623244542656      3.59490868256243     -3.14937960148818
  H          -0.65487443847707      3.13898789593540     -2.69802620427640
  H          -2.20094050697714      0.24693140191748     -4.58399351462076
  H          -0.90407754403736      1.44033450489143     -4.62942572502044
  H          -2.58132743483526      1.94311777306173     -4.83364899681972
  O           1.76805240073519     -1.40055651619707     -0.80584469205594
  O           1.92846957133445      0.81854982634077     -0.57853255953827
  C           3.22643508204625      0.76351102804632     -1.15109746909557
  H           3.61655381001631      1.77769034247866     -1.12153776602685
  H           3.17240083511859      0.40325839091137     -2.18070787797450
  H           3.86593274494834      0.08846345493608     -0.57881458995707
