34
Coordinates from ORCA-job TS E -43.937264959420
  C          -0.69970727548545     -0.24070158488559     -0.56330079040354
  C           0.76407621433813     -2.47785182108766      0.57660539580285
  C          -0.57145714065152     -2.49281854125750      0.37430561712790
  C          -1.28355113905891     -1.42329453077809     -0.21928851732279
  C          -0.10938763056845      0.36072057703987      1.52223107918982
  C           0.66205639481805     -0.59922363811222      2.10132233908264
  H          -1.15964472227030     -3.28690176573117      0.81531562969861
  H          -2.36093935266939     -1.50897685672666     -0.23150056752529
  C          -1.45254783075445      0.87777487760752     -1.25203036362333
  H           1.24986275746456     -3.25960852957623      1.13556280845675
  H           0.36362219238008     -0.22506710019209     -0.75137824046031
  H           1.41371143533730     -1.83630786112151      0.00986207606915
  H          -1.13721106744330      0.46846780663876      1.82012853690620
  H           0.24952801733402     -1.29798169121391      2.81177255390136
  H           0.36602583654718      1.20876478326142      1.06667935442075
  C           2.12416658407367     -0.58295920956886      2.04407270037777
  C          -2.82456280714460      1.15123386186471     -0.63121950107881
  C          -0.63745248704051      2.17506824959704     -1.24772371444281
  C          -1.64174219951370      0.43015673540422     -2.71287487363608
  H          -2.73048845447347      1.39508479486450      0.42389163858695
  H          -3.48425763607483      0.29393225727497     -0.73173672569121
  H          -3.29335050782076      1.99418190586821     -1.13443159840671
  H          -0.62097881685970      2.62358946906302     -0.25776455928802
  H          -1.08089201766287      2.89577040044896     -1.93188519050450
  H           0.38657870446847      1.99141563446371     -1.56554804141402
  H          -2.20804412463831     -0.49680069307293     -2.75874722203031
  H          -0.67769762239427      0.26528479646623     -3.18866287436775
  H          -2.17752777932124      1.19283177503533     -3.27390969127066
  O           2.85257260547742     -1.21557213837685      2.77166618294075
  O           2.60157715657267      0.24315433905450      1.08171563091636
  C           4.01335695115744      0.32512551938571      0.99468333566159
  H           4.23013550868754      1.03438797253369      0.19933804667199
  H           4.43957935463258     -0.65361250623286      0.76171532485927
  H           4.43459089855693      0.67073271206176      1.94113422079542
