23
Coordinates from ORCA-job NEB E -43.939075735610
  C          -0.21765086625608      0.26078395636472      1.43832075264526
  C          -1.01224232283221     -0.44719526669467      0.50423320264308
  Br         -1.20739709949007      1.49653360552835      2.57647931803361
  H           0.41359072407899     -0.33857939825545      2.08436165049099
  C          -0.77584995684304     -1.91464063677142      0.25571663145078
  C           0.83280121205134      1.38985082653251      0.41698028596130
  C           0.24850827697877      1.51065130341024     -0.87311231128438
  C          -1.18977482833315      1.61109837744131     -0.84317330635508
  O          -1.68259432731963      0.22070104594180     -0.38596911034681
  C           2.26011357770706      0.89895868865363      0.46335905577712
  H           0.73811628268974      2.27868269921030      1.03816039469746
  H           0.65572276908623      0.88588256353183     -1.65870539887041
  H          -1.67818358777232      1.71083971717585     -1.80734618551411
  H          -1.58632796168440      2.32905509207025     -0.12505902708367
  C          -0.74657318518848     -2.26927119528376     -1.22768954520637
  H          -1.59177222765266     -2.46477887602769      0.73723381891317
  H           0.15195871588657     -2.21700820839721      0.74417530560551
  H          -1.66036676599552     -1.93804081734311     -1.71320864729185
  H          -0.65387387224557     -3.34478579708819     -1.34917943940113
  H           0.10046555351829     -1.79312335208067     -1.71436114162685
  Cl          2.42829173810770     -0.70762256387090     -0.26795294436021
  Cl          3.30998001940789      2.03204959893396     -0.43170253782683
  Cl          2.86305813210053      0.80995863701830      2.13843917894940
