23
Coordinates from ORCA-job NEB_reactant E -43.981390661120
  C           0.77933595977216     -0.81099407382743     -0.43695624516738
  C           1.39165013764957      0.00350811068282     -1.29576973125307
  Br          0.12878789935000     -0.18689805901337      1.22289795927894
  H           0.63031770178479     -1.85960992572945     -0.61223650724412
  C           1.93333320337962     -0.53647478643778     -2.59225413527171
  C           3.93534613025072      2.37862175936399     -3.34713516328598
  C           3.42505610876297      2.22231702170513     -2.13585368838439
  C           1.95870454601134      2.29207467134467     -1.83119927120638
  O           1.54099886665376      1.30623556098177     -0.91785352412886
  C           5.37656522444433      2.30146473309304     -3.69659819356012
  H           3.30292606229256      2.57753797285236     -4.20206213926476
  H           4.05466613518743      2.02961883603286     -1.27866203900011
  H           1.35859440027488      2.27359473636452     -2.74960760933300
  H           1.75590993764700      3.23391928006966     -1.30670887516814
  C           3.33266716281708     -1.12857297095941     -2.40488869962221
  H           1.96966180981069      0.24408861881315     -3.35134060116914
  H           1.26144680389611     -1.31954672156178     -2.94729950015066
  H           4.02762665573374     -0.37952203002766     -2.03508236231897
  H           3.70670418329352     -1.50182842122910     -3.35472283879151
  H           3.30192957928499     -1.95033855878541     -1.69418640289027
  Cl          5.60593995732032      0.99624525900946     -4.90228816222747
  Cl          5.89528423112818      3.84279817834031     -4.44448040716749
  Cl          6.43234730325424      1.96796080891763     -2.31801186267317
