23
Coordinates from ORCA-job NEB_product E -43.992834541320
  C           3.29130853976615      0.57772271003803     -1.34005105493956
  C           1.81450707230957      0.25682348176714     -1.57513143745519
  Br          3.43093786304915      0.39298902370541      0.61317549656849
  H           3.94652595968186     -0.19312418010057     -1.74634139251553
  C           1.51261513294322     -1.21327814811644     -1.69530549665381
  C           3.65439489685333      1.95613946176365     -1.88527202915562
  C           3.44950777732495      1.87633059813749     -3.37994914591016
  C           2.47517792013173      2.49384327142566     -4.01784591766852
  O           0.98464211277920      1.12173468642569     -1.64539214801002
  C           5.08811994769875      2.40926848777855     -1.59726012673072
  H           2.97007841213760      2.69923799958618     -1.46162561975733
  H           4.16113678624901      1.25358474255001     -3.90455901795198
  H           2.35355086370861      2.40016417034619     -5.08290978085130
  H           1.75732711581768      3.10799736846715     -3.50157931922414
  C           1.77139101217042     -1.65596075770308     -3.13883481169322
  H           0.46249019143016     -1.37533061919716     -1.44963306354221
  H           2.13586079071325     -1.78941137354146     -1.01027601614359
  H           1.16167192879156     -1.07405041650656     -3.82571379098907
  H           1.51599193666297     -2.70609079765564     -3.25127121485538
  H           2.81661459151016     -1.52496592136580     -3.40998706707337
  Cl          6.26082655237335      1.11108552040181     -1.92264960132582
  Cl          5.48693521221502      3.78356739019397     -2.67152073189092
  Cl          5.30968738368231      2.97302330159979      0.07213328776900
