21
Coordinates from ORCA-job R E -28.659151897470
  C          -1.31567421136049     -0.11324209789255     -2.93200205317532
  C           0.01675229901093     -2.39559277120949     -1.45965529687396
  C          -1.29020331684740     -2.22906543605557     -1.65566586458012
  C          -1.94748335741520     -1.12811315985877     -2.31917511306027
  C          -1.08047839024810      1.01650169258852      0.12436866775037
  C           0.16268412144009      0.59411165439223      0.17365317085319
  H          -1.96426084409141     -2.99003942621766     -1.27961995034591
  H          -3.02712798528549     -1.15509327370794     -2.30491917064028
  N          -1.90151996569042      0.99490935110352     -3.48762725396551
  H           0.39881824764552     -3.26364038805847     -0.95038864332189
  H          -0.23651071602241     -0.08657697697649     -2.96597457862801
  H           0.75099458128217     -1.68541502177899     -1.79764532256355
  H          -1.82102190583372      0.60055355118413      0.77966944378610
  H           0.55983856006130     -0.16434729347130      0.83145525983720
  H          -1.38742032032371      1.77333741561807     -0.57509057881216
  F           1.11185524973496      1.09123017547351     -0.63783449458229
  C          -3.32731384118021      1.07586539078236     -3.68451367951163
  H          -1.34809864729695      1.47371025636469     -4.18051894598661
  H          -3.82982348472554      0.96771731377133     -2.72275983688005
  H          -3.70620038327184      0.30127676683209     -4.36290111700792
  H          -3.57295568958211      2.05329227711679     -4.09536464229139
