24
Coordinates from ORCA-job NEB E -53.726039784510
  C           0.48979544699728      0.93452470838569      0.70867182623442
  C          -0.64825029890451      0.14737923785737      0.98529263580054
  C           0.36801122857428      2.41264619773925      0.63361958619940
  H           1.37542227193279      0.62988692597059      1.26166381785328
  O          -0.38777651902450     -0.92754945085298      1.73999454525589
  C           0.82261180563223      0.10039776434225     -1.23742325954040
  C          -0.32740568520163     -0.61502078882867     -1.54063969114671
  C          -1.57823538056986      0.00950115377807     -1.40425902649537
  O          -1.73088164310600      0.24701377515582      0.32892964604490
  C           2.11068500417110     -0.65985273809660     -1.18047079136621
  H           0.92874724829044      1.10151695926359     -1.64028167769190
  H          -0.30081325438404     -1.69326213658998     -1.43559335709212
  H          -2.46558558934631     -0.58255288200839     -1.57542412785136
  H          -1.67771534018792      1.04167804863941     -1.71234017719649
  Br          0.62691156090200      3.13058591894306      2.49461548091935
  Br          1.74095900566403      3.29805655972692     -0.45796960050190
  Br         -1.33671615956633      3.11127581249978      0.03273597657742
  C          -1.37174272224375     -1.94307092461733      1.87122225246637
  H          -1.76459992228810     -1.91594248903393      2.88829917374341
  H          -0.87414883073889     -2.89586079295753      1.69224521631198
  H          -2.18313241773406     -1.79279246070123      1.15846692362774
  Br          3.62345746077770      0.35458238183464     -0.49454691838595
  Br          1.97628781323517     -2.27480452772163     -0.09115716235159
  Br          2.58411491711888     -1.21833625272818     -3.02565129141469
