24
Coordinates from ORCA-job NEB_reactant E -53.763564190420
  C           2.64636036298415     -0.22864189927299     -0.47199812553038
  C           2.05073439693867     -1.39917468909139     -0.77540906505452
  C           2.38344472589511      1.08826513234347     -1.04165346154980
  H           3.40906781329106     -0.27375771615088      0.29166666167542
  O           2.42307859252730     -2.46422614742768     -0.04761032144754
  C           3.75956541994828     -2.35594610588611     -3.40765319414336
  C           2.46327903802545     -2.62248052187725     -3.36250398300646
  C           1.44696697985341     -1.55980558956319     -3.07564392494735
  O           1.07189919581463     -1.59291457677057     -1.69205942567212
  C           4.85216264105516     -3.34114264205214     -3.55455501169649
  H           4.12003763805899     -1.33627711536222     -3.33041665271657
  H           2.08632872165292     -3.63261835281058     -3.44744654193275
  H           0.51195424898148     -1.74440568559421     -3.60601710046026
  H           1.83523303874725     -0.57670414051832     -3.35627507436759
  Br          2.78155490273438      2.48964140429296      0.26249320510648
  Br          3.60225491482946      1.46650293875337     -2.62740505002191
  Br          0.55656169243923      1.36762586543813     -1.65515995389705
  C           1.71472909140147     -3.68462416398831     -0.20008247237988
  H           1.99138909491912     -4.28496113128262      0.66356402501305
  H           2.01653360936691     -4.20273432823470     -1.11350618168668
  H           0.63687068908680     -3.51741136392063     -0.21325528795690
  Br          6.06031860786961     -3.16027113476334     -2.00106357697557
  Br          4.26919492952797     -5.19017016946784     -3.63330047120062
  Br          5.88327965405122     -2.95466786679301     -5.19070901515114
