24
Coordinates from ORCA-job NEB_product E -53.796132711830
  C           3.06253338144697     -1.31756535003710     -1.31065127181855
  C           1.90308342753824     -2.28611533466232     -1.03494497700452
  C           2.55746339039367      0.08657737480042     -1.02438337099171
  H           3.83731783415214     -1.53049304674831     -0.56109681019039
  O           2.23535648179097     -3.12028156136037     -0.06490958650490
  C           3.68022421634706     -1.48275754148390     -2.71409669523968
  C           2.69354106714577     -1.31168077764143     -3.83715087607851
  C           2.93546544287557     -0.54616659009042     -4.88610590286558
  O           0.84357351830939     -2.24939476493102     -1.59604689311135
  C           4.38291954125254     -2.83370455700468     -2.87280533582648
  H           4.47199718542906     -0.72486113598279     -2.81748152624323
  H           1.77389596669747     -1.87342312282878     -3.75405101777701
  H           2.22137932128190     -0.45596135879809     -5.68465279943039
  H           3.84397967576827      0.02634568630473     -4.98532595432881
  Br          1.99205056259309      0.15082746117770      0.85489592000164
  Br          3.98923582125165      1.40222560106868     -1.24485648805437
  Br          1.05259914013780      0.65590653616628     -2.09993980506722
  C           1.24569174926989     -4.06995829652507      0.31938293985544
  H           1.68136604548296     -4.64087376169115      1.13398491232870
  H           1.00684938316197     -4.71896613228443     -0.52536025247594
  H           0.34076478874456     -3.55531931351389      0.64538421260083
  Br          5.37316610597161     -2.84847819294883     -4.56080800832124
  Br          5.69545232090414     -3.16280289375054     -1.45023437397495
  Br          3.15229363205332     -4.33957892723470     -2.91164603948176
