19
Coordinates from ORCA-job NEB E -42.957701020100
  C           0.83777763548263     -0.18897603117156     -0.16884533793479
  C           0.21942938046238      0.80611403499752     -2.21408425654813
  C           0.93187080420415     -1.62473180552924     -0.01074506829439
  H           0.40114793030246     -0.00579242866983     -1.24974787413674
  C           0.82984382406290      0.18283319208761     -3.30117638443059
  C           0.12455416895402      0.68904895861518      0.80844957126115
  C          -1.07937419634898      0.09602693323035      1.50886112884941
  C          -2.30633794018519      0.52995005206454      1.29869046121096
  O          -0.26290968083441      1.85116008973951     -1.94461166115334
  C           1.08588696426184      1.11370864691317      1.81460996202391
  H          -0.18159469197832      1.60306972571236      0.27251960941265
  H          -0.86928569316393     -0.70555865054555      2.20038394737998
  H          -2.52439299897681      1.33340776093781      0.61311659951385
  H          -3.15000543481630      0.09223387780270      1.80342990588217
  Cl          1.64942641433154     -1.97581580847619      1.56701475614561
  Cl         -0.70433857548858     -2.53790321841185     -0.10403636912552
  Cl          1.93335456975703     -2.34869123389832     -1.29996161583998
  N           1.25339328204128     -0.36728678515884     -4.21880157716509
  N           1.81155423793230      1.45720268976062      2.62493420294889
