19
Coordinates from ORCA-job NEB_product E -43.091673150880
  C           1.34546660990097      1.34826707010754      1.01805825317303
  C           1.65117835363012      2.20797417035769     -0.21554087571099
  C           2.29667355933302      0.15566481993214      1.12264760466522
  H           0.33129452174870      0.95189963464003      0.86924399412305
  C           2.09909772022268      1.50573265473465     -1.40584230926629
  C           1.30122452993600      2.25221356360284      2.27616424237378
  C           0.37414446239793      1.72152333969464      3.34896197374013
  C          -0.92679640678180      1.59108999712886      3.17379713308321
  O           1.48988706151609      3.39754580469671     -0.23664533669100
  C           2.61596326645744      2.49387201744175      2.83089098135585
  H           0.92181799786628      3.22748695536165      1.93362018929343
  H           0.83650046080552      1.46540603076202      4.29044904720791
  H          -1.41640905452731      1.85451223350377      2.24935269398526
  H          -1.56210379419911      1.21572112459189      3.95572787368912
  Cl          2.26966913465509     -0.56769600497045      2.74148288827867
  Cl          1.80291403143848     -1.10863518839498     -0.04249468841020
  Cl          3.97291472800891      0.65597989357825      0.74477328213666
  N           2.44883758593702      1.07512196546990     -2.40644849640547
  N           3.62202523165396      2.72461991776110      3.31910154937862
