19
Coordinates from ORCA-job NEB_reactant E -43.093819779160
  C           1.79213070052394      0.21029274825047      0.08128399658712
  C           1.22486897135210      1.40044242286561     -0.21017548698365
  C           1.71668501791197     -0.66534102482044      1.27510315377339
  H           2.40878331838345     -0.19808077197226     -0.70752699857465
  C           1.54145704016806      1.88384651572647     -1.52629985228777
  C           1.00638079879608      3.02317947243696      3.94286086186048
  C           1.12274957508668      2.86435198615263      2.62593372199263
  C           0.07500021729703      2.21123066125375      1.77756145072718
  O           0.40378967741206      2.25880476787394      0.40071745714573
  C           2.00711447954829      3.64365478440764      4.71466167845338
  H           0.14078593266691      2.67169326809145      4.48911726663847
  H           1.99782731069115      3.22784619192321      2.10385557260888
  H          -0.86100256560362      2.77880741967360      1.84335743438680
  H          -0.12504944079629      1.18931481447113      2.11261440072839
  Cl          2.38752474222253      0.10570287417819      2.75534662864966
  Cl          0.03062317493212     -1.19038651913014      1.62452493823856
  Cl          2.66353422518744     -2.14585186356562      0.98584939323373
  N           1.79776095153325      2.26399396776130     -2.57341170813556
  N           2.81583587268687      4.14619828442211      5.35292609095722
