23
Coordinates from ORCA-job NEB E -41.026265500040
  C           0.12778901935944      0.46486612826914     -0.62417106396540
  C           0.28022713258206      1.08628980148189      0.62966272907013
  O           1.24895046545658     -0.09773472629839     -1.23532381074879
  H          -0.54887826412649      0.95495432253133     -1.32844596491134
  N          -0.58169373860770      2.07220607926614      1.03309349601699
  C          -0.68462659424209     -1.23305867602336     -0.06035856586008
  C          -0.38419925120888     -1.43735426217342      1.29188651322472
  C           0.95092614289641     -1.05193341890950      1.65839130262948
  O           0.99993029046510      0.52435441501278      1.56279604316961
  C          -2.13920309407808     -1.16028517109835     -0.44136896008633
  H          -0.08237231294925     -1.75477963911888     -0.79614936999256
  H          -1.16212628356721     -1.21140345004911      2.01323777079170
  H           1.71764119983151     -1.38246744956451      0.96052839907595
  H           1.23873578644640     -1.20207514309856      2.69320437698198
  C           2.05970339499951      0.85641159593580     -1.88302467498170
  H           2.86962337728305      0.29993507942317     -2.35074141997164
  H           2.47144408930886      1.57959339477516     -1.17028236113938
  H           1.49470154174858      1.39665513382879     -2.65196686416892
  H          -0.73585428273492      2.14446388291514      2.02732647185814
  H          -1.37516587860368      2.27261191437006      0.44657449459246
  F          -2.74751964616894     -0.09590686258936      0.15922930151674
  F          -2.30688220504597     -0.96537015001327     -1.77205558257367
  H          -2.71115088904427     -2.05997279887266     -0.16204226052809
