18
Coordinates from ORCA-job P E -25.391515236060
  C          -1.32302342133564      0.34165634417024     -2.41411103766519
  C          -0.02547648421393     -1.64262837442439     -1.01885166554736
  C          -1.40115392731480     -1.92194283000143     -1.53963120848918
  C          -2.02537368302756     -0.96731911560909     -2.21001739266266
  C          -0.74263690491404      0.81699499996833     -1.06733448820229
  C          -0.02186826085951     -0.29267220919954     -0.29485782423935
  H          -1.84143682141826     -2.88831040132934     -1.35417271129026
  H          -3.02106137385834     -1.07456523964515     -2.60796508790694
  N          -2.24787381613369      1.35153615385437     -2.90080791334225
  H           0.31781277669925     -2.42603813178611     -0.34367230555801
  H          -0.47480831080514      0.16862264261185     -3.10897062448712
  H           0.67563670737516     -1.58778612331329     -1.85790439233962
  H          -1.57934734275412      1.19162485095895     -0.47641499372766
  H          -0.46774800764604     -0.41247926627115      0.69479456068122
  H          -0.06429302050295      1.65178905180167     -1.24755107040693
  Cl          1.68360793665530      0.17467780569904      0.02268848854308
  H          -2.64943560160903      1.06644141884986     -3.78714688051799
  H          -1.76937044433664      2.23420842366517     -3.04339345284147
