18
Coordinates from ORCA-job R E -25.314278940400
  C          -1.24168901697241      0.08768699132331     -2.94616158520437
  C          -0.22978330326212     -2.41708183109574     -1.56401481801273
  C          -1.50099303117163     -2.07420308869609     -1.76249281073330
  C          -1.99617875594935     -0.87800356707413     -2.40144694675824
  C          -0.95296274337352      1.13751371589059      0.06144797234166
  C           0.22472843118141      0.56879081191372      0.21435250766597
  H          -2.27593744722919     -2.74720398063868     -1.41553888671570
  H          -3.07264135992028     -0.76133857120708     -2.42421776306403
  N          -1.73711416687574      1.26775960283841     -3.45118346398295
  H           0.02879428189253     -3.34023591739879     -1.07414074650138
  H          -0.16484044548863      0.02003987677732     -2.95373133485386
  H           0.59612240165447     -1.80487746938124     -1.88165205853413
  H          -1.81674507167767      0.72872610452675      0.55495575015372
  H           0.40045608089625     -0.31041255417634      0.81349505023292
  H          -1.09879628435319      2.00459728486623     -0.55836466363027
  Cl          1.64435226211855      1.15658643618398     -0.55857254817873
  H          -2.72567960533397      1.28065378269904     -3.65136278578164
  H          -1.16852222613553      1.74355237264873     -4.13304086844293
