22
Coordinates from ORCA-job P E -28.573645363820
  C          -1.55639173632758      0.49609263778079     -2.27235112626152
  C          -0.10573995427967     -1.57002661583072     -1.18399050633933
  C          -1.46104283854730     -1.86794154102570     -1.73359417337703
  C          -2.15403431475708     -0.88174187126873     -2.28082047079496
  C          -1.06115098273328      0.78472431510503     -0.84145949850104
  C          -0.12851657651907     -0.30590688633999     -0.28219012337456
  H          -1.83560804409788     -2.87850021646721     -1.68026653924646
  H          -3.13661126669480     -1.00756357031630     -2.70801590796778
  O          -2.43658306468022      1.49459399451927     -2.73137808765605
  H           0.29049469577005     -2.41500094842440     -0.61857985561163
  H          -0.70856420679719      0.53555556910130     -2.96841648990622
  H           0.56950303812489     -1.37706742908380     -2.02276078314226
  H          -1.94396803863849      0.86562894983092     -0.20249556279801
  H          -0.51873418426862     -0.61247140887531      0.69541028702723
  H          -0.55080641903980      1.74688343087511     -0.81382508568144
  N           1.18797500923047      0.24816933891457     -0.00492677023040
  H          -3.21274645805680      1.50477380098162     -2.15967626286023
  C           1.98930922378390      0.66304892269707     -1.13909649162381
  H           1.72017940003304     -0.40671609123968      0.55871812216009
  H           1.40875673036544      1.33405280189044     -1.76875660362880
  H           2.35959232712039     -0.16367049276444     -1.76246124954750
  H           2.85144766100961      1.21020330994017     -0.75820682063828
