22
Coordinates from ORCA-job TS E -28.485069362190
  C          -1.07705380359917      0.36952101357179     -1.36731544717377
  C           0.32486078870102     -1.80158607901798     -0.15229544762552
  C          -0.97413547406065     -1.90104040563464     -0.52998952308395
  C          -1.66292422451707     -0.86076195102591     -1.17456857251961
  C          -0.69098246528014      0.93842884245371      0.66023429331596
  C           0.17255102495036      0.08088807379630      1.29845397450446
  H          -1.55966339555837     -2.74264422259179     -0.18349639413413
  H          -2.73956823862207     -0.93808729893001     -1.26643281489716
  O          -1.76388083889908      1.42841855454872     -1.88196745865806
  H           0.78209033220490     -2.58406853530759      0.43267419832828
  H          -0.02843679526865      0.46351697881441     -1.59843352184582
  H           1.00532075101694     -1.14009448908199     -0.65456827583843
  H          -1.72931061410891      0.89447102813693      0.93906856726277
  H          -0.21978989960897     -0.66446748744799      1.97255604541321
  H          -0.34736774227583      1.89668322491483      0.31441465896296
  N           1.52420386991670      0.31421169824972      1.47901008310169
  H          -2.71173747819093      1.26878890922586     -1.79015654582875
  C           2.26190729653049      1.19035449440685      0.60201281323258
  H           2.04639431991033     -0.50646384462410      1.75029477538179
  H           1.78167455144679      2.16720833864066      0.57760878840170
  H           2.33735834666162      0.81514402162762     -0.42650451162965
  H           3.26848968865068      1.31157913527460      0.99940031532945
