24
Coordinates from ORCA-job NEB_reactant E -44.463917818140
  C           1.67993520483590      0.47463378102514     -0.06896070702348
  C           1.36780406240837      1.65577076386176     -0.61755794868572
  O           1.52520788659945      0.15089991481822      1.24191487980409
  H           2.07840539117681     -0.30201763659701     -0.71126626046568
  C           1.55672946802047      1.82292061390407     -2.10024366140180
  C           3.48615926060277      3.10181412401895      1.14675212259399
  C           2.41121438091178      2.88501441467618      1.88536803910799
  C           0.99865828741758      2.90274126064147      1.37706885344052
  O           0.88384314754870      2.78388621899510     -0.03120785678677
  C           4.88616139976725      3.06446544827740      1.65778680108659
  H           3.38545567812703      3.32482523972699      0.09277071126891
  H           2.49925644811765      2.66978691382463      2.94129620445908
  H           0.52882405993485      3.86824190864405      1.59671852696899
  H           0.42104913898987      2.11281563370064      1.86999952868419
  C           2.30426686425345     -0.94167261134373      1.67651966091703
  H           3.36960015968259     -0.69125428037716      1.66936946703535
  H           2.13679884410967     -1.82211020705252      1.04817468792740
  H           1.98779550195114     -1.15531505953491      2.69544124306349
  Cl          3.29613021301022      1.69131387439604     -2.51317786338028
  Cl          0.70603906027364      0.54555919870358     -3.00362786460334
  Cl          0.97507828252604      3.38650521965535     -2.66110186356569
  H           4.91116296912442      2.82340182821802      2.71769436387250
  H           5.36549124051898      4.03058429677460      1.50358663708613
  H           5.46523305009135      2.32148914104315      1.10978229859651
