19
Coordinates from ORCA-job NEB E -34.104971184840
  C          -0.22337828383614      1.38079432084680      0.71225582980932
  C          -1.57636836966959      1.13384307996595      0.50236151881654
  Cl          0.63857236843155      2.22812721348755     -0.52679038552281
  H           0.12472971301069      1.61472423919604      1.70780706305712
  O          -2.30237188046439      0.86554866953520      1.62783915243003
  C           0.38774116452389     -0.62798539408767      0.45084553099806
  C          -0.07575252858532     -0.80077753659931     -0.85246465183615
  C          -1.45318114952584     -0.82392882996093     -1.08121658910381
  O          -2.05134205914213      0.81627155843522     -0.62825693166146
  O           1.67391166956699     -0.64129545841319      0.84439040544697
  H          -0.23256605577149     -0.96944732231149      1.27494609689449
  H           0.57436555197735     -0.54986368611674     -1.67605774943779
  H          -2.08198161311803     -1.35039634699395     -0.37503125630017
  H          -1.80441378825128     -0.85343760854186     -2.10057356051467
  H          -3.17780535019835      0.55086207586200      1.36142932182195
  C           2.68878196656011     -0.51401777296311     -0.13615911868073
  H           3.62635378740385     -0.49934773409870      0.41622633815921
  H           2.58605265623545      0.41092144627187     -0.70501902095286
  H           2.67865220085267     -1.37059491351368     -0.81653199342322
