19
Coordinates from ORCA-job NEB_reactant E -34.135005052630
  C           2.24488577762853     -0.32985474008692      0.36263847174928
  C           1.48235381352806     -1.38109176786356      0.66537595187916
  Cl          3.28931369340525     -0.14730474361326     -0.99504305478492
  H           2.23705060646726      0.51657235639756      1.02578047282070
  O           0.73194183163606     -1.29971490576404      1.79234752279324
  C           3.95781793609939     -3.42084456009756      0.40050634745985
  C           3.47446187681641     -3.18669461639677     -0.81302125146979
  C           2.01491251824855     -2.96100467187348     -1.08325905452650
  O           1.26604510490268     -2.56979515104797      0.05632972150364
  O           5.24171939866124     -3.61869960067456      0.76952630070387
  H           3.31682825227639     -3.47004909760758      1.27063315403825
  H           4.10374912451565     -3.13663437741595     -1.68615043303016
  H           1.53338150031078     -3.89519815323930     -1.39732929325874
  H           1.89158063010874     -2.22741301862462     -1.88698442660999
  H           0.21872589686064     -2.11679062462260      1.86228197216336
  C           6.22582388639466     -3.54148410289697     -0.23540441236899
  H           7.18020921620381     -3.69075982013279      0.26600452624357
  H           6.21536774629045     -2.56130746047658     -0.72176197955020
  H           6.08333118964543     -4.32053094396305     -0.99097053575562
