23
Coordinates from ORCA-job R E -40.912659913050
  C          -1.28830361559659     -0.06094854295020     -2.91723095388190
  C          -0.54257501170836     -2.66437945323818     -1.56427102075762
  C          -1.76481791531351     -2.15179655137816     -1.68287232850064
  C          -2.11927211509802     -0.87083857353026     -2.25210419271285
  C          -1.17238047738617      0.72460469947522      0.22682382162192
  C           0.05026746647582      0.24712178159004      0.35956565134987
  H          -2.60522397512817     -2.72433677355518     -1.31050628839005
  H          -3.14659711392833     -0.55512991605449     -2.14048807446345
  O          -1.70275034563181      1.13249628104118     -3.40350834892895
  H          -0.38521230071626     -3.63386756158423     -1.12442121423592
  H          -0.25144636300526     -0.31967110887046     -3.09657941219787
  H           0.33909114567709     -2.14799313142585     -1.90063713888873
  H          -2.00553908033281      0.25470135133133      0.71720612436423
  H           0.29239174483726     -0.62845494186603      0.94126420403893
  H          -1.38380318857081      1.59833242021628     -0.36640511712265
  C           1.23562293176992      0.85759020940840     -0.31747067852681
  C          -0.73561217699125      1.88294149351179     -4.10350359550403
  H          -1.23320703199507      2.79377527812037     -4.43112707719242
  H          -0.36614113614020      1.33644770998961     -4.97696642201680
  H           0.10826738970655      2.14330533573087     -3.45764163394370
  F           1.77827531896229      0.02695882628826     -1.23116412398020
  F           0.95839910451348      1.99362379175940     -0.97383423116819
  F           2.22256674560019      1.14817737599029      0.54741205103781
