23
Coordinates from ORCA-job TS E -40.902555759680
  C          -0.83862131337105      0.08045723919286     -1.11336184674835
  C           0.42108033612630     -2.04922048353462      0.37855849008248
  C          -0.90693084062955     -2.03136578900550      0.09460466672469
  C          -1.52390860832857     -1.00164409313976     -0.64017920457009
  C          -0.25339245688012      0.82966443522540      1.00488855262718
  C           0.48081872351996     -0.12710403610612      1.63322598745560
  H          -1.56058531939221     -2.73274681521770      0.59418524501794
  H          -2.60216939497283     -0.96788918398628     -0.68617622024830
  O          -1.51304655072252      1.09651642319662     -1.69320972724542
  H           0.82541014736360     -2.80561727215062      1.03066073173794
  H           0.22783700617941      0.04670316567949     -1.29640047134733
  H           1.13654024738923     -1.56474332963384     -0.26017847127348
  H          -1.29091452957376      0.96707000748027      1.24212280163296
  H           0.08440037883587     -0.72536813851214      2.43489299696673
  H           0.24003046384612      1.62810390359787      0.47949093389264
  C           1.96950793021172     -0.01104404932028      1.62231242136461
  C          -0.73484518891226      2.10039917071110     -2.30397651491977
  H          -1.43168388919860      2.75927252205782     -2.81837665641171
  H          -0.03156957064132      1.67646263117488     -3.02704343028776
  H          -0.17618799824844      2.67793662397155     -1.56012344635703
  F           2.60735477683898     -1.12545825738854      2.00688998635409
  F           2.46732791806936      0.32079165975301      0.41494457378799
  F           2.40354773249067      0.95882366595453      2.46224860176440
