20
Coordinates from ORCA-job NEB_product E -33.706075252270
  C           2.57152947717972     -1.12711918589714     -0.22636190411397
  C           1.95845841594698     -0.97640100791299      1.17448999290215
  C           1.73324589107541     -0.33108139704805     -1.22169656746178
  H           3.57481636730038     -0.68374514094296     -0.19885300813016
  N           2.57187209490644     -1.71311086407080      2.12011662797227
  C           2.70830906909945     -2.62139966466918     -0.62525864225992
  C           2.99021140766738     -2.75949985121510     -2.09336468917784
  C           2.16410884981434     -3.31286440894036     -2.95964412258592
  O           1.03418645705675     -0.22954994258099      1.40824456735796
  O           3.72184551112408     -3.25653949656506      0.13948596860634
  H           1.78135917925146     -3.14685961392659     -0.37032547877834
  H           3.94589533896607     -2.36410353059715     -2.41372192808858
  H           1.20704230461292     -3.70697307883474     -2.65955275690143
  H           2.40762814076808     -3.38822361126144     -4.00497111690131
  F           2.47379209438411     -0.00466386437616     -2.33238277201369
  H           1.40297675636898      0.60677847468336     -0.76650449434399
  H           0.86765640421996     -0.90174921301740     -1.56866896743393
  H           2.17230644929104     -1.72094391694495      3.04458048898283
  H           3.20565470660291     -2.45244409262378      1.85081098651799
  H           4.57950508436352     -3.00180659325853     -0.22312218414869
