25
Coordinates from ORCA-job P E -39.550673017770
  C          -1.36230653559285      0.39367010440201     -2.32168945805134
  C          -0.34344469226891     -1.86704244292540     -1.10125894662391
  C          -1.63177216276551     -1.96220414622572     -1.85311414297488
  C          -2.10802987567544     -0.90021687166294     -2.48151560735526
  C          -1.08909372387422      0.56693899365979     -0.81944782857352
  C          -0.20572553187056     -0.56845171624013     -0.27422252422550
  H          -2.12725904161380     -2.91899824849373     -1.90195017837918
  H          -3.01904283885675     -0.91495899598376     -3.05543766636204
  C          -2.12708477699825      1.56718313509089     -2.91043248665032
  H          -0.21875600889844     -2.73345962000562     -0.45270483153014
  H          -0.40235168059918      0.34024346017064     -2.85033568295932
  H           0.46580665069911     -1.89041036958937     -1.83879147505297
  H          -2.05020502871228      0.56603313026100     -0.30354355645811
  H          -0.53648875860340     -0.78074296366910      0.74697687872958
  H          -0.60816371937255      1.52730425618869     -0.63406225875716
  C           1.26108021795458     -0.12524015466440     -0.20464232794239
  Cl         -3.70810092602659      1.77237313136378     -2.12965536569862
  Cl         -1.21519451125879      3.08516456549500     -2.72822675456640
  Cl         -2.39847725035540      1.31370413541671     -4.65481372567963
  C           2.16509359976029     -1.15516654946796      0.46338418897426
  H           1.31798015845142      0.80561952600491      0.36422807491584
  H           1.62616590582759      0.08217514649852     -1.21326325273497
  H           1.79959977864309     -1.38947839425951      1.46080303906090
  H           3.17569341195453     -0.76387925380556      0.55354609983308
  H           2.20925734005229     -2.07613985755873     -0.11159021093800
