25
Coordinates from ORCA-job TS E -39.440725482690
  C          -1.06344026346780      0.62214834103856     -1.41704948167517
  C           0.12504545056165     -1.72139599928468     -0.29492602012271
  C          -1.18732610748534     -1.66691272732555     -0.63515363302081
  C          -1.77245608681295     -0.52817809676646     -1.22206818811699
  C          -0.53389972851508      1.00204112103141      0.78501963187955
  C           0.30274208825893      0.02909066867879      1.22634255216202
  H          -1.85779586226206     -2.44215340740549     -0.29192975913172
  H          -2.84781988977232     -0.50460762731817     -1.32436312095399
  C          -1.71907116197553      1.84498632280015     -1.94546391105192
  H           0.49521584246574     -2.57280861097886      0.25134322429430
  H           0.00267571844998      0.59928133955817     -1.57004586802970
  H           0.86363006102477     -1.13855236780998     -0.81098979093144
  H          -1.57848528536533      0.98766306143920      1.03934887246312
  H          -0.06905781599202     -0.73799516395015      1.88803529533962
  H          -0.13719238914181      1.94035681965205      0.43877830687370
  C           1.79450530795881      0.24588467207857      1.22405085450159
  Cl         -3.22020524932995      2.23502625911868     -1.08107827757779
  Cl         -0.64334257302471      3.25589564166694     -1.85989907126403
  Cl         -2.14371513684737      1.61095019702541     -3.68561335343080
  C           2.60808896446374     -0.95319136605492      1.69574155493930
  H           1.99958344352544      1.08239353215750      1.90135268478393
  H           2.13098502641855      0.56104017220516      0.23294746455935
  H           2.24627143589866     -1.30019018903015      2.66108766521696
  H           3.65386403696350     -0.67448553705946      1.80504509023371
  H           2.55120017400251     -1.77628705546670      0.98948727805992
