20
Coordinates from ORCA-job TS E -33.955130608390
  C          -0.89870725480129      0.55535432666413     -1.38514410799727
  C           0.42355574928029     -1.65698651460532     -0.15297407389576
  C          -0.90741164682883     -1.67581109406390     -0.42776924065222
  C          -1.56079379993846     -0.59751535409986     -1.05227711110047
  C          -0.26258550887108      1.14600780004532      0.75071497007700
  C           0.51302964348080      0.15576042832465      1.26190184467582
  H          -1.52985695835318     -2.44745578850409      0.00392518372117
  H          -2.64173038234292     -0.60658753499254     -1.09389844041690
  C          -1.60552539784897      1.68084891650034     -1.84477300147786
  H           0.86729190792624     -2.44246506100876      0.43640684827762
  H           0.16145475848878      0.56689131313879     -1.58890173463806
  H           1.11016747424834     -1.09100635646402     -0.75637798309074
  H          -1.29864507606580      1.22374433127066      1.02444955998590
  H           0.13930346723683     -0.53611015660009      1.99836289166566
  H           0.18439450473267      2.01195525847668      0.29336962652493
  C           2.01134929745864      0.28622843655689      1.23408915514927
  N          -2.18304045195728      2.60908373281682     -2.19407138200368
  F           2.63172135580358     -0.88639217794513      1.51023418336893
  F           2.46471606949929      0.67984435208534      0.01486562728319
  H           2.38131224885236      1.02461114240407      1.96786718454347
