19
Coordinates from ORCA-job NEB_reactant E -40.814242674720
  C           2.25268163936929     -0.67824430269140      0.70949563126390
  C           1.29656028094132     -1.60977131261067      0.71866954470907
  N           2.80351570903601     -0.16042497019327     -0.43764632955776
  H           2.66608618498339     -0.31769750898182      1.63767817524636
  I           0.70450324442706     -2.47211601951636      2.58427678580424
  C           3.42514538243520     -3.68349835486520     -0.24761266671482
  C           2.47920327804176     -3.45143750232019     -1.14677431013677
  C           1.03138626377813     -3.41418969434599     -0.77047332870179
  O           0.67165529239592     -2.08312635766406     -0.38414913177524
  C           4.88757175815388     -3.58024731102279     -0.47956792887568
  H           3.17807653215535     -3.97941651477771      0.76367899837010
  H           2.72789432669277     -3.14964648671517     -2.15300890218319
  H           0.82149464703613     -4.09910009898758      0.06139721668266
  H           0.38252054084615     -3.64881333285234     -1.61476790574344
  H           3.18347558032206      0.76928667783977     -0.37398718946550
  H           2.28883411479317     -0.34578145444392     -1.28510174927370
  Cl          5.56293914930576     -2.38150683124287      0.66322889438934
  Cl          5.66214915083063     -5.16005736866584     -0.15275724966234
  Cl          5.31780692445601     -3.08011125594262     -2.11847855437545
