19
Coordinates from ORCA-job NEB_product E -40.824461273370
  C           3.07826404687154     -1.23155266975881      0.06554108913016
  C           1.73650909692430     -0.88556553257383      0.69204108859447
  N           3.24496413296759     -0.57804978562543     -1.19967046583797
  H           3.87045238033738     -0.89796785116634      0.74710669446732
  I           1.58966568384551     -1.42194744370295      2.79524583508814
  C           3.16610864921741     -2.77636182750562     -0.05961483755821
  C           2.18545919854129     -3.29142986363399     -1.07767655485487
  C           1.03908226839903     -3.85645353482345     -0.75103991810724
  O           0.82820571362805     -0.35151150063922      0.16189731569614
  C           4.58337849945974     -3.24505448795566     -0.38729681253791
  H           2.92554020706319     -3.20440578545316      0.92010074890582
  H           2.47141378736273     -3.16022223544184     -2.11082553924146
  H           0.74331026194350     -4.00394841603950      0.27511903996609
  H           0.34676513680864     -4.19948643610691     -1.49948437169135
  H           3.31706051343648      0.42628773714498     -1.09636318666850
  H           2.48115962294859     -0.78612148850876     -1.83230785793332
  Cl          4.58654617143983     -5.03000941800606     -0.41397353228998
  Cl          5.16377106323847     -2.66701381389646     -1.95248469416084
  Cl          5.72774356556674     -2.71638564630702      0.86908595903353
