21
Coordinates from ORCA-job P E -38.665710536610
  C          -1.14588954567529      0.59387761215106     -2.35543473305665
  C          -0.66072169573428     -1.66212706276303     -0.44440637137027
  C          -1.11287391364584     -1.85186778192844     -1.85960303990258
  C          -1.31371623559393     -0.85607913092768     -2.70824431061436
  C          -1.01639604150901      0.80473889843682     -0.83750141542578
  C          -0.11473475162500     -0.26097670611596     -0.21296383008113
  H          -1.25389042992538     -2.87479339539098     -2.17431602073436
  H          -1.59610117981773     -1.05747212811888     -3.73249271108546
  C          -2.34507200355955      1.42590252694240     -2.82394676857372
  H          -1.49650774136616     -1.84009591476936      0.23873208483632
  H          -0.26100669687554      0.99704468780127     -2.86173491206969
  H           0.10808289765590     -2.40390676581792     -0.21658594015382
  H          -1.99870681466016      0.73865749725234     -0.36335271971641
  H           0.00499070886916     -0.05307004106814      0.85588519748166
  H          -0.61018618099827      1.79804609991451     -0.64101448458435
  N           1.24901592040170     -0.11605127000428     -0.80306533050850
  O          -2.25857587192909      2.54903124339144     -3.21813826155857
  O          -3.53065905421241      0.80922604207461     -2.70700406489372
  H          -3.43158366355356     -0.11310826762098     -2.42406814701619
  O           1.73114070198966     -1.05951588496384     -1.37495615359316
  O           1.77756159176477      0.95741974152505     -0.65092806737926
