21
Coordinates from ORCA-job TS E -38.559903160430
  C          -0.42586930324186      0.39318733743990     -1.18347785237194
  C           0.99564056173034     -1.79850454339408      0.06206416489307
  C          -0.30017685874060     -1.88318303074045     -0.30480757315341
  C          -0.99246087575223     -0.83005306235611     -0.95227827023092
  C          -0.12967919980294      1.08108829228850      0.89535138116786
  C           0.59292143960914      0.16015861331649      1.58209318204379
  H          -0.89247975406872     -2.72533151292811      0.02621874696360
  H          -2.05380428919157     -0.98185797110053     -1.11443094679472
  C          -1.16703576604085      1.53161198401832     -1.79503783130503
  H           1.45011488347831     -2.56010178297567      0.67333295418465
  H           0.64398136808705      0.48399666369066     -1.30264686135920
  H           1.67036996092818     -1.09765732032412     -0.39692618138111
  H          -1.18542271164632      1.17517237765880      1.07865062091281
  H           0.17517435636240     -0.56684194138865      2.25879083568178
  H           0.38150980599080      1.93798649465767      0.48539771694859
  N           2.01120896540972      0.26038663861680      1.64493183946533
  O          -0.62491428159927      2.36709731211195     -2.46101665067930
  O          -2.48820949366060      1.59511121636183     -1.54759208970736
  H          -2.80271288552232      0.86367001282853     -1.00036949823773
  O           2.56994617564907     -0.39211690981258      2.50360548325254
  O           2.57189790202228      0.98618113203087      0.84814682970670
