23
Coordinates from ORCA-job NEB_product E -32.519756590800
  C           2.36051059286658      1.64427170001683     -1.76623469602904
  C           1.24033070254568      1.27225655897420     -2.72143689823840
  H           2.08492079444230      1.24675632521898     -0.78505386771337
  H           3.28375172870559      1.14776347068437     -2.07218242834432
  C           1.24868841258268     -0.18437922754069     -3.13766311750994
  C           2.57459895549207      3.15824223369618     -1.63974550112746
  C           3.50338221610051      3.45540660288045     -0.49903873587390
  C           3.17621287549763      4.17557827366261      0.55603988492025
  O           0.41897409240893      2.06213546535301     -3.10664940834731
  C           3.15001170795658      3.70867137109518     -2.94662166378037
  H           1.60792076853087      3.63943455585275     -1.46533309791367
  H           4.49730249139912      3.03640213161860     -0.59383376537214
  H           2.19582641732653      4.60906799341038      0.66372759288475
  H           3.87414042258462      4.36962825351062      1.35239186353146
  C          -0.04359000526809     -0.59527812472350     -3.83088758420807
  H           1.43562329332196     -0.80505619284119     -2.25914354172093
  H           2.09559490997791     -0.31799831706188     -3.81708438061953
  H          -0.88347969623983     -0.50278605872011     -3.14716697689302
  H           0.01731873424896     -1.62444381957921     -4.17486711685461
  H          -0.23056710365442      0.05177661598675     -4.68368363422848
  F           3.31751692828668      5.06785583371287     -2.86393672143892
  H           2.46951578734118      3.52489545096211     -3.78334407956997
  H           4.13849497354593      3.28459890383069     -3.15935212555301
