23
Coordinates from ORCA-job NEB_reactant E -32.504285995210
  C           1.59336446348190      0.08060388037054     -0.14909525870082
  C           1.71449265869967      0.45410049488868     -1.41677175187549
  H           1.90085023240593      0.68174250481955      0.68644073361328
  H           1.16768356301831     -0.87643182851030      0.08719229861917
  C           1.25127684278490     -0.39064423556549     -2.57359742546282
  C           3.18962030200253      3.99008091513038     -2.90812708329729
  C           3.15189315761206      3.81630692440492     -1.59881986954933
  C           2.65269188614662      2.58101938068943     -0.91831614330809
  O           2.23008031641269      1.63255075900528     -1.86840068211410
  C           3.68832200675889      5.22495569300510     -3.58522322507851
  H           2.84964296720656      3.21688883314672     -3.58005812026528
  H           3.49363149334616      4.59141338812739     -0.92744266164042
  H           1.81852178272787      2.84786480999206     -0.24997807812744
  H           3.45729596263284      2.16102011226108     -0.29380494052849
  C          -0.11262158187234      0.08352422127169     -3.07595858341260
  H           1.19062370386615     -1.43314967865647     -2.26237504462604
  H           1.98153615214796     -0.30485959411403     -3.38006301980373
  H          -0.85757571817058     -0.00987622136877     -2.28903642114552
  H          -0.43055076245963     -0.51123033714221     -3.92896150373966
  H          -0.05796111387780      1.12622718300582     -3.37882090213733
  F           4.10993334062002      6.17654169902931     -2.69024060691196
  H           2.89672471132581      5.68820755060487     -4.18807902649444
  H           4.54612363318349      4.99814354560444     -4.23126268401309
