17
Coordinates from ORCA-job NEB E -37.538521857320
  C          -1.64353837304385      0.24047406183928      2.93484298326329
  C          -1.21798250864604     -0.70091783264820      2.18819007143071
  H          -1.70313716306772     -1.69968189374264      2.49040587892214
  H          -2.18645483890873      0.79530960970664      3.64652053837364
  Br         -3.22181781669368     -2.01256837438405      4.06649199498653
  C           0.78343235304892      0.65537454188775     -1.77542087320168
  C           0.85237599503564     -0.07923041607355     -0.67663907051777
  C           0.20589881226309      0.30175592981318      0.61397370547333
  O          -0.40383815889231     -0.86309627231075      1.16154776093662
  C           1.42926563688267      0.33169616456365     -3.07402773025506
  H           0.23646159666910      1.58822856413883     -1.79462238203552
  H           1.38973652452231     -1.01583248947708     -0.65505701095466
  H          -0.54454682206387      1.08954320255223      0.47685144686717
  H           0.96956507774809      0.66934129303245      1.31632089552276
  Cl          0.16592292565393      0.20248937526634     -4.33451505999395
  Cl          2.53144710622571      1.66823470139876     -3.52608589595994
  Cl          2.35720965326675     -1.17112016556283     -3.05877725285761
