17
Coordinates from ORCA-job NEB_product E -37.676772196930
  C           2.73469277779116     -0.71516160532845     -2.35132555843211
  C           1.47772634019866     -1.49737458515579     -2.53601832665978
  H           2.61849903498894     -0.17010394004149     -1.40812561729026
  H           3.59186497011469     -1.38040575254741     -2.23760185452680
  Br          1.51584670558086     -3.16354697915148     -1.48834160495786
  C           2.96078157602176      0.29091186327151     -3.49165083116011
  C           3.70742783739116      1.50125757694751     -3.00091860550819
  C           3.26209255448240      2.73480994641071     -3.13819867417343
  O           0.50547600370479     -1.22672520817760     -3.14517294340276
  C           3.72656283271537     -0.36925418999081     -4.64279870004455
  H           1.98837488617122      0.60141694708868     -3.89019936245695
  H           4.65162417155700      1.29690418070772     -2.51756466702082
  H           2.32453949235183      2.95208659231555     -3.62260355432424
  H           3.81850429971694      3.57935239891633     -2.77141866985085
  Cl          3.87160866214300      0.76904203136547     -5.99896541628895
  Cl          5.36501670325404     -0.85023340635955     -4.14065793068102
  Cl          2.87796115181618     -1.82937587027091     -5.21563768322131
