26
Coordinates from ORCA-job NEB E -46.341127140460
  C           0.30845676586046      0.38194813245732     -0.54447158935109
  C          -0.79496269435836      1.25241696917977     -0.51423520654818
  C           0.24553516959320     -0.78660034358149     -1.51650843259050
  H           1.27866007585763      0.86875604057036     -0.51443340333468
  C          -0.65602249157738      2.68235389538192     -0.04217330220215
  C           0.08242670779479     -0.29198182483951      1.23518228890974
  C          -1.19034072335971     -0.88124661654612      1.18267715165598
  C          -2.29383301626056     -0.02485107031151      0.90290915334579
  O          -1.99257150741506      0.73547428021231     -0.48832539601891
  C           1.24630273808388     -1.12741651217746      1.67715751116524
  H           0.14774374503051      0.67250067355007      1.73887345702812
  H          -1.27931379490101     -1.92927430362771      0.93736846373204
  H          -2.40876430409510      0.83183496722881      1.56548385611549
  H          -3.23808664959897     -0.51993785725998      0.71182556799881
  C           1.58904771809886     -1.02778971843222     -2.19329878454026
  H          -0.50450094269804     -0.54898556680270     -2.27434956540996
  H          -0.09274183674893     -1.70397844624600     -1.03631341337708
  H           1.92257292509811     -0.13285895684852     -2.71334542360323
  H           1.49829779495472     -1.83315999523169     -2.91735637557050
  H           2.35296291387902     -1.30829057790865     -1.47256670932086
  F           0.61412150178093      2.95326961713964      0.39369035069230
  H          -1.34090772578359      2.88170313769070      0.79367317824467
  H          -0.87775743121731      3.38308355062882     -0.85541225588821
  Br          1.09929693445942     -1.32402413968430      3.64924069593475
  Br          1.31437808363064     -2.92510663117480      0.95488295868131
  Br          2.97000004389184     -0.27783870336708      1.33982522425139
