26
Coordinates from ORCA-job NEB_product E -46.385170521140
  C           2.47646841180457     -0.39446007370506      1.65790198857240
  C           1.95928209998650      1.02926821829968      1.85254745279706
  C           1.75739753333968     -0.90910253843557      0.38942803159303
  H           3.55309679341433     -0.37651380901313      1.46266604383343
  C           2.80854352664629      2.08071341182751      1.15631999254454
  C           2.16405519979944     -1.23167249345422      2.91775983100992
  C           1.92985850248479     -2.69109959801711      2.64946761161891
  C           0.74821281132841     -3.26784578760110      2.76352892754792
  O           0.94748181056758      1.27800748481175      2.44605775835060
  C           3.26917893438163     -1.09933883468429      3.95722271660518
  H           1.24868744575900     -0.80899881900620      3.35867732726529
  H           2.79987719622626     -3.26907723929992      2.36888105708950
  H          -0.13128272365089     -2.71567030144907      3.05228448036139
  H           0.61382801236998     -4.31753890090539      2.57043043741128
  C           2.61322409909104     -1.86708241086451     -0.42904873363970
  H           1.49531045909081     -0.05425727215727     -0.23903902219019
  H           0.82298363690178     -1.39074567479242      0.67887100222421
  H           3.54205458027783     -1.39011150537706     -0.73415100436065
  H           2.07389426809266     -2.16642290110194     -1.32388804646786
  H           2.85593824887342     -2.76169764314328      0.13576897054605
  F           2.13336335810634      3.25585311252441      1.01457008987335
  H           3.10908229143369      1.74917607714289      0.15634105395756
  H           3.70030152661095      2.28621355306175      1.76194311835570
  Br          2.79235776432524     -2.08354041482231      5.57658324716214
  Br          4.96963406478221     -1.81755052882583      3.31090894067783
  Br          3.59967014795647      0.76189488898769      4.47246672726107
