18
Coordinates from ORCA-job NEB_reactant E -38.150141568770
  C           2.40207038625058      0.35047066967578      0.23668220511876
  C           1.59031194045067      1.06943001504094     -0.52499963688300
  H           3.00094725233038      0.77568952453716      1.01509176020038
  H           2.47752349589079     -0.70369364645530      0.06037881611696
  O           0.85489452469956      0.52191922848844     -1.51629612424766
  C           4.33293069087315      3.40144949628269      1.35176988445461
  C           3.46551480751400      3.27432865193021      0.35991468331180
  C           1.98425623446102      3.15980305982075      0.55982297431332
  O           1.34907016776229      2.41835148347361     -0.45397487483228
  C           5.80363078329683      3.53959112690734      1.20202141928344
  H           4.00808064829403      3.40884356532618      2.38344861491433
  H           3.78919657607989      3.26112708445540     -0.67087276728403
  H           1.53686935804859      4.15793539359762      0.48504967237480
  H           1.75098754861702      2.74224488074634      1.54722016673676
  H           0.33494849903329      1.22301728095615     -1.93005414261524
  Cl          6.34592880144104      5.03850494527768      2.01517378573435
  Cl          6.60284766566722      2.15416502185034      2.01086352307609
  Cl          6.35259061928964      3.59062221808867     -0.47553995977338
