24
Coordinates from ORCA-job NEB E -51.465560187270
  C           0.03417539392231     -0.18138323843592      1.00654895778456
  C          -1.32328056599972     -0.41457186545769      0.81099446888696
  C           0.48513121188684      1.00036049770381      1.82460164503532
  H           0.67765051248814     -1.03853806708424      1.17607743317661
  C          -1.77007664251054     -1.85562864924723      0.61503622974333
  C           0.57987584549927      0.46970938763721     -0.95787157701922
  C          -0.66366923967474      0.59605659679124     -1.58932529326988
  C          -1.65708378853868      1.39627718549352     -1.04838020064334
  O          -2.14643381655327      0.48402940177314      0.49263522623152
  O           1.41167592327181     -0.47216752918352     -1.41381501631112
  H           1.03704029682803      1.35437338238796     -0.52421648586243
  H          -0.93370138575327     -0.20392179432785     -2.26676312489931
  H          -2.62755957689293      1.41536275125527     -1.51937286938792
  H          -1.38771030311037      2.29304375106016     -0.51177689185038
  F           1.83872952060854      1.11738917310029      1.77205783751043
  F          -0.00138509199799      2.18796240604880      1.40939649096850
  H           0.21258483061143      0.88396828076157      2.88779505492943
  Br         -1.58373068617989     -2.80929358600858      2.31320358960512
  Br         -3.61441402622550     -1.88998429874462      0.06126932404566
  Br         -0.69930433475944     -2.80611757442212     -0.72077702188615
  C           2.76869052367186     -0.38764507959741     -1.02160722181645
  H           3.25828943700920     -1.25920734307026     -1.44968284530817
  H           2.87524626601191     -0.40399212266162      0.06549529313557
  H           3.22925969638699      0.52391833422808     -1.41152300279864
