20
Coordinates from ORCA-job NEB_product E -54.034604271840
  C           1.53931260062921     -0.29688878015211     -1.61088868715737
  C           0.71529040133073     -1.21396077763987     -0.72456895863725
  C           1.25138197332851      1.16180734020112     -1.22713981546611
  H           2.61088246760429     -0.45564772013150     -1.44153833885088
  C           1.54175532303526     -2.42116271070210     -0.18340116007760
  C           1.18604321390805     -0.64838378974479     -3.07903299531207
  C          -0.15146663483497     -0.15121723598526     -3.51123743972361
  C          -1.17797388212404     -0.95721647933723     -3.71068857666604
  O          -0.44849472933282     -1.10912222214127     -0.49621383959745
  Br          2.59353546238930      0.05778992779647     -4.27164003700270
  H           1.25201813467137     -1.73383059536606     -3.19480748892943
  H          -0.23739783082945      0.91462170411015     -3.66530732719975
  H          -1.10623999612773     -2.02370689590769     -3.57159633926530
  H          -2.13491162825146     -0.57539351857185     -4.01733702260159
  F           1.86120269857932      2.02933274372651     -2.03396271313244
  F          -0.04208890685970      1.47733054503061     -1.22328535426309
  F           1.71101205114391      1.39383966541419      0.01095001182727
  F           0.82512144640433     -3.21127318610448      0.59952263035932
  F           1.99300864571844     -3.15814031623302     -1.21366144347814
  F           2.61440918961746     -2.00877769826182      0.49893489517424
