21
Coordinates from ORCA-job NEB E -33.810550385540
  C           0.48625656567648      1.01496221589781      0.03220898611976
  C          -0.06395619009138      1.65489597737680      1.16869274135663
  C           1.83433193134038      0.33472087193468      0.16911151126607
  H           0.46550642386822      1.60989744185689     -0.88090712888752
  C          -0.53108035070880      2.96835085521434      1.16933272101280
  C          -0.33241204720727     -1.46807247812420     -0.72058640199045
  C          -0.70201097671292     -0.37407146292822      0.05088380986679
  C          -0.66108404760943     -0.49896364509561      1.57589901651051
  O          -0.51021330374482      0.79927426940584      2.13163328981609
  C          -0.75259336657320     -1.65055887099449     -2.13115185091301
  H           0.39286132063252     -2.17177145376604     -0.33725844842186
  H          -1.59528811094734      0.13797391164423     -0.30420343920491
  H           0.17064255947776     -1.14502324598634      1.87817939134533
  H          -1.58863757203131     -0.91247519863150      1.98321391638847
  F           2.81806413024038      1.26395678310740     -0.06424653783079
  H           1.96308145230274     -0.45185642086594     -0.58388708198125
  H           2.01576900189028     -0.05596151669454      1.17419691534332
  N          -0.84079830008871      4.07841878062978      1.18875418068514
  H           0.10485762178359     -1.60117216563125     -2.80580915275504
  H          -1.47485394302313     -0.89493218864245     -2.42887283419221
  H          -1.19844279847402     -2.63759245970719     -2.26518360353387
