21
Coordinates from ORCA-job NEB_product E -33.850096722670
  C           1.28835860158456     -1.86672025986330     -0.13627458986098
  C           2.55144449541605     -1.85925779959651      0.70640058879096
  C           1.57453512888939     -1.35912720389248     -1.55274632784558
  H           0.61620871865468     -1.12697161946473      0.32075202460647
  C           2.33708442667914     -2.39638641646243      2.04487351639187
  C           0.57158953463624     -3.24440370756668     -0.05553498023508
  C          -0.58620467791790     -3.27504823983984     -1.01241167868737
  C          -1.84238138762671     -3.08520423492846     -0.65644698457355
  O           3.61648509033640     -1.42102009621844      0.36393930911694
  C           1.51847843485395     -4.41417121164851     -0.33031648088155
  H           0.18651121380243     -3.34189293096176      0.96651406064795
  H          -0.32859594657998     -3.47462914966824     -2.04340192688241
  H          -2.12062516817203     -2.89480551874129      0.36779731193430
  H          -2.64812964083831     -3.11934712824825     -1.36937474647352
  F           2.20085954088997     -2.29378675675866     -2.33120775298945
  H           2.24082072261429     -0.49045666858009     -1.51187313725233
  H           0.64181984204761     -1.09862559021428     -2.06237398902735
  N           2.17188355939907     -2.77277630248429      3.11290098044378
  H           2.32930847665495     -4.43864661821372      0.39591797494901
  H           1.94765956143211     -4.35008447982626     -1.32568179413414
  H           0.96668947324408     -5.34853806682179     -0.25335137803797
