22
Coordinates from ORCA-job NEB E -39.768302075900
  C           0.04198599886301      0.04415656209991      1.06725284458657
  C          -1.30241867370735      0.35922969566177      0.81870198019293
  C           0.99735008670374      1.18886315504675      1.30240134482491
  H           0.20362322336947     -0.78496703148716      1.75300098505131
  N          -2.27705286324853     -0.67320113792486      1.05394798416006
  C           0.49015943738188     -0.71775229833217     -0.65805686705565
  C           0.09801198693112      0.31981692457965     -1.50048194799126
  C          -1.28628626095897      0.74163362890959     -1.52234296314160
  O          -1.61112731010218      1.24121554635986     -0.10382165759327
  C           1.93205924414389     -1.14108373716533     -0.61638512475224
  H          -0.19090012998052     -1.55953866777339     -0.56391248819538
  H           0.84682107100899      1.01765070048439     -1.84849773215708
  H          -2.01633676282255     -0.05261087537076     -1.69037036746630
  H          -1.49491613509798      1.60422382384092     -2.14735333672914
  F           2.25972162083960      0.73721293141053      1.57396716643231
  H           0.67104142310050      1.74381228337588      2.19101537758273
  H           1.06522425245860      1.87213251653005      0.45203130260720
  O          -3.31075065709984     -0.62048610721985      0.41585724375376
  O          -1.99899154244032     -1.53497694959033      1.87168149200781
  H           2.15535642668379     -1.68046015428524      0.29974273176207
  H           2.60472674009129     -0.29229548524163     -0.69538822898317
  H           2.12269882388237     -1.81257532390859     -1.45298973889658
