22
Coordinates from ORCA-job NEB_reactant E -39.790984524790
  C           2.02295340175837     -0.23380232012723     -0.10834411725982
  C           1.48383065603624     -0.72489445359584     -1.22890111013540
  C           2.47373942433353      1.18114891569262      0.01163664027468
  H           2.12419498151114     -0.86295871267854      0.76183707326838
  N           1.01768300234296     -2.10669827812261     -1.21551509684671
  C           2.61509128840550     -2.72196865747982     -3.92830418671591
  C           2.62445082578369     -1.41915089448527     -3.69251990156911
  C           1.38852146688174     -0.57831327160289     -3.61273130427484
  O           1.24457390845345      0.02854504911354     -2.31150363947469
  C           3.82710621576024     -3.58338944026324     -3.97190604010330
  H           1.67373227055853     -3.22752000886412     -4.10507786046731
  H           3.55315084969900     -0.89817610983876     -3.49787496588183
  H           0.49725778071338     -1.16548441067425     -3.85294410932345
  H           1.44777793514230      0.28279870330770     -4.28355677949239
  F           3.31687754387831      1.33087114274270      1.07791076299952
  H           1.62145900554349      1.85183417059721      0.18378136560699
  H           3.01041777045523      1.50832457611882     -0.88615468838671
  O           0.09677395728620     -2.39200781441523     -1.94907285587444
  O           1.56942392137704     -2.87044293862025     -0.45466172273173
  H           3.75721985075955     -4.35206019871777     -3.20278780662428
  H           4.73130415075617     -3.00228196504319     -3.81020929047967
  H           3.89365979256391     -4.08767308304356     -4.93490036650797
