22
Coordinates from ORCA-job NEB_product E -39.793807179430
  C           2.09677852344793     -1.07564759900942     -1.40229283231820
  C           0.92953151501983     -1.91322978640758     -1.02948117136702
  C           1.77023321180104      0.40380028685607     -1.15741787418290
  H           2.96471489083111     -1.35585723260901     -0.79595707928124
  N           1.32092745473416     -3.27287958938001     -0.37978856860347
  C           2.43087693700098     -1.34258713692610     -2.90194382715365
  C           3.61080261451290     -0.50672890028441     -3.29976788224255
  C           3.57294652636829      0.42529854849714     -4.23255324138031
  O          -0.23010388853394     -1.71534002586877     -1.17576290522081
  C           2.73553043483563     -2.82202087682915     -3.14375041933268
  H           1.55954939558176     -1.05125107556341     -3.49821646906207
  H           4.52849290894941     -0.72521720041858     -2.77226324998541
  H           2.66719132883275      0.66025407883399     -4.76807710918417
  H           4.44641820317698      0.99179390047524     -4.50316123399429
  F           2.92656790943995      1.12445443153453     -1.05226729508352
  H           1.22956544199711      0.53716969228718     -0.21436714262807
  H           1.19336056741092      0.83256845750079     -1.98181319068381
  O           0.43989930339359     -4.08527800215511     -0.31927328171262
  O           2.45610657211692     -3.39266324961831      0.01215903421812
  H           3.50248184815819     -3.17818465603319     -2.45914206371175
  H           3.09750001498715     -2.95515416409602     -4.16050194970442
  H           1.84302828593733     -3.43389990078589     -3.02266024738516
