23
Coordinates from ORCA-job NEB E -39.602796584370
  C           0.58475193625522     -1.02370643983208     -0.98313566885652
  C          -0.29571100870969     -0.22397359492609     -1.81436938073499
  N          -0.19721131417194     -1.95174553262507     -0.45636732487617
  H           1.65590495505059     -1.02901613163212     -0.97583933042841
  C          -0.02322411830343     -0.15424188586717     -3.28064668911605
  C          -0.37332087417663      0.08991949704028      2.02877546963987
  C          -0.41438242689524      0.84914535450803      0.93562496198608
  C          -1.54145755159892      0.78411588138147     -0.04451567292391
  O          -1.12815663322184      0.68843055647483     -1.41246912386497
  O           0.54064550976990      0.09151227089509      3.01027453318778
  H          -1.14130328301031     -0.64333339792004      2.23722976905628
  H           0.34443210633781      1.58479310100098      0.71514184976139
  H          -2.13714003205202      1.70254098880491     -0.02624587133723
  H          -2.18888671174207     -0.07741278785236      0.15531768320057
  O           0.05749917447579     -2.78999676304437      0.38652617530488
  O          -1.36979232375808     -1.83999291942549     -1.00723580863965
  H           1.04718170519728     -0.06244216242771     -3.45328838337887
  H          -0.56262105995793      0.66909166511099     -3.74031401395634
  H          -0.35130976248593     -1.09044713862252     -3.73112082126571
  C           1.65285495900499      0.94634188138170      2.87758791761388
  H           2.27170758930734      0.77299882124435      3.75566687134128
  H           1.34453986253074      1.99628948297478      2.84816291729437
  H           2.22499930215441      0.71112925335760      1.97523994099242
