23
Coordinates from ORCA-job NEB_reactant E -39.645270096860
  C           1.99057800750512      0.29860204523142      0.57569182435799
  C           1.54613665198259      1.43559215191800     -0.01088207339368
  N           1.48838404013880     -0.38011681465515      1.69781341877481
  H           2.85201468964009     -0.19429095683193      0.15139593987751
  C           2.14901414595111      1.85088709069013     -1.32450132606783
  C           1.47667821203131      1.85827554408581      3.84824400112943
  C           1.41801799004121      2.54375426348478      2.70977939551516
  C           0.25658261202024      2.44821084110516      1.76991959657195
  O           0.67134128172052      2.33869884730330      0.40654066947465
  O           2.43185981084223      1.88435074325091      4.79166860273866
  H           0.68478754803950      1.17912285955276      4.13679617887422
  H           2.20046775244232      3.22242393926113      2.40345192928886
  H          -0.32629824459159      3.37564716135214      1.77181874515928
  H          -0.39206538744049      1.61013735898555      2.04671801603679
  O           2.27419012902187     -1.07142886072212      2.32236982364664
  O           0.29512445180368     -0.30514966801484      1.95614083446478
  H           2.96240099845896      2.55380969931518     -1.14954870541674
  H           1.39136669776190      2.36038332281218     -1.91413107338433
  H           2.53183842634694      0.99764566195864     -1.87338947796448
  C           3.56543570015208      2.68878186990557      4.56228904299117
  H           4.20657605372111      2.55946614088094      5.43190902130489
  H           3.28932250263009      3.74343110590249      4.46337291509087
  H           4.10114592978040      2.36806565322793      3.66353270092942
