18
Coordinates from ORCA-job NEB_product E -40.472786104290
  C           1.74269508159167     -1.38938885167583     -0.58483722050710
  C           2.58498768280187     -1.83382451911302      0.59241250625953
  C           2.48745309581413     -0.38237317720099     -1.31417121341368
  H           0.79692108266912     -0.94054872720905     -0.25220299475098
  C           1.92713425509409     -1.66863998737427      1.95805761199165
  C           1.39176344019350     -2.58991106261160     -1.49145210602769
  C           0.48811534615025     -2.15931100554905     -2.59427523544681
  C          -0.68948932747569     -2.71433516952398     -2.81549847330368
  O           3.68221982354932     -2.29418916835863      0.50733207820719
  I           3.17672615917857     -3.50568422605316     -2.34470150669014
  H           0.92141888696714     -3.37077409120029     -0.89031253470550
  H           0.86194834635354     -1.35758225259113     -3.21719299714711
  H          -1.06560958758118     -3.51735836238518     -2.20259508726589
  H          -1.32160972296412     -2.38690266881545     -3.62154740346200
  N           3.06223723895848      0.42010530898563     -1.88513251387009
  Br          1.57732528990601      0.23777785519709      2.24789906940692
  Br          0.23909155789759     -2.65144003721632      1.97582191581323
  Br          3.09107135089572     -2.35001985730477      3.34039610491214
