21
Coordinates from ORCA-job NEB E -35.820338700430
  C           0.43934818759060      0.12508614714631      0.98280750085323
  C          -0.56150429301849     -0.86445733807279      0.99237567985829
  C           0.03095397622798      1.55274807742942      1.21749430473178
  H           1.39872361849207     -0.15210822523319      1.40846755219885
  N          -0.21750598605135     -2.18884712279769      1.17655110415126
  C           0.72058222672425      0.00639733925214     -0.97936419711461
  C          -0.52730367935506      0.32652502535889     -1.52049804614427
  C          -1.59108325410466     -0.56274696199674     -1.20396706133499
  O          -1.70595577958917     -0.62492098307917      0.42827417743873
  N           1.81992505029382      0.90681784762135     -1.19661602887828
  H           1.06541576372345     -1.02339554477619     -0.99224534418595
  H          -0.73271230726907      1.36250337088863     -1.73969721562041
  H          -1.40682711016631     -1.61507918519398     -1.40792265252220
  H          -2.58716737973667     -0.25127302553640     -1.49179673130056
  H          -0.97155958642092      1.72234764671594      0.83371967578028
  H           0.71443559047510      2.25649342588708      0.74798133307658
  H           0.03002680644630      1.75557315835133      2.28825027303066
  H          -0.98513552723419     -2.84091408726457      1.20260059000300
  H           0.55075843860311     -2.39679850817781      1.79137019616943
  O           1.58375939813510      2.08337039447607     -1.36011703482860
  O           2.93282584623409      0.42267854900137     -1.17766807536223
