21
Coordinates from ORCA-job NEB_product E -35.874094886770
  C           2.67754056784987     -0.06406168893979     -1.41270815123182
  C           1.38680666710503     -0.86487805520932     -1.18955159850880
  C           2.67535776420209      1.19491656631797     -0.55507810879516
  H           3.53604821958097     -0.69689743386044     -1.15978972023804
  N           1.52936169040334     -2.19303340161326     -1.39976453168774
  C           2.74784899255941      0.25006969011871     -2.93272951194935
  C           1.76952299477778      1.30143555504519     -3.34879661087092
  C           0.61791555146110      1.02544878084086     -3.92886809262727
  O           0.33306489658269     -0.35842587322266     -0.89505141924122
  N           4.14585104336616      0.67261883236160     -3.19476431391065
  H           2.59871596764550     -0.67945443211285     -3.49294685086541
  H           2.06862221308474      2.31729021566268     -3.13651172504417
  H           0.31020921218787      0.01423432824807     -4.13852960976934
  H          -0.07454726883017      1.80150215780699     -4.20122976721518
  H           1.70762955798634      1.68426204300707     -0.63175186328840
  H           3.45576370650056      1.88564656936181     -0.86598770368261
  H           2.84184562100760      0.93020521776725      0.48616711992483
  H           0.72950207336861     -2.78996068450565     -1.26637171219396
  H           2.41710243017397     -2.62132501881804     -1.59331919700861
  O           4.43547978074308      1.83149359725945     -3.03670476784060
  O           4.91665831824344     -0.20668696551564     -3.50351186395557
