14
Coordinates from ORCA-job NEB E -25.629347621520
  C           1.05043987115509      0.98690223723005      0.36569069374201
  C           0.77121696359996      0.00148110928688      1.29444437867016
  H           1.84952856539595      0.76640017605403     -0.32730688356063
  H           0.99569695603343      2.01845281541230      0.67841355527483
  Br         -0.23090366231593      0.57335700997384      2.89087814239118
  C          -0.43298469672028      0.67578218535703     -0.97796900303925
  C          -1.05567560511017     -0.50481691272637     -0.59646303381195
  C          -0.22515545293592     -1.62221733670399     -0.36345313321922
  O           0.68484281436971     -1.22442707039663      1.01899334467672
  I          -1.59928641211056      2.44743734310395     -1.06987097507930
  H           0.27328110024189      0.65287597264402     -1.79412735220740
  H          -1.98232955783221     -0.44734419102974     -0.04048771020994
  H           0.59568822884384     -1.78756418174669     -1.05340883445526
  H          -0.69435911261479     -2.53631915645868     -0.02533318917193
