19
Coordinates from ORCA-job NEB_product E -42.641776956450
  C           1.04659446250291      0.34110719496895      1.54217809787247
  C           1.83046576259965      1.65436000287961      1.51324589115415
  C           1.69613120839866     -0.75191298217436      0.70375110145309
  H           0.05749720469104      0.54352347029704      1.11731253296005
  C           3.27518938580691      1.52972106473155      1.54852252244968
  C           0.85242415228120      0.01020970622306      3.05291764402371
  C           0.24321158294681     -1.34562390252657      3.27098572839448
  C          -1.04218854844960     -1.53656748459892      3.50043007002477
  O           1.28451746792919      2.72340576819333      1.51194154341728
  O           2.11194929539881      0.14589357914175      3.67173981925883
  H           0.16570354308954      0.78344088849137      3.43935691449469
  H           0.94246473049912     -2.16920365378094      3.25251678633833
  H          -1.74328175670816     -0.71840813943412      3.52374337256507
  H          -1.44598664504080     -2.52011637869684      3.66247658710316
  Cl          0.49848803003459     -2.00742426309367      0.30653228643610
  Cl          2.23649137815367     -0.01606244645183     -0.84453037994392
  Cl          3.09015120875580     -1.52229982374895      1.46574676993297
  N           4.41882681850345      1.51091237604979      1.56098579282242
  H           2.08445071860719     -0.25685497647026      4.54644691924267
