20
Coordinates from ORCA-job NEB_product E -33.569525806790
  C           1.43932339131192     -2.20291714567856      0.18529669915659
  C           1.27273755075517     -0.99527013191522      1.08183767390669
  C           1.04644274389927     -1.86670980695300     -1.24954701285343
  H           2.50838750034224     -2.45641048965292      0.22308839703038
  H           1.47092455328548     -1.21455973317334      2.15093630229287
  C           0.65835935666984     -3.38389596751331      0.80543730281993
  C          -0.82906235434253     -3.16852564878913      0.74170083882987
  C          -1.56577927172892     -2.85502235795834      1.78921416663971
  O           0.97350250267887      0.10343837841931      0.71991843035456
  C           1.03884803085096     -4.71462197158037      0.14895048514452
  H           0.96208582801115     -3.48035999101732      1.85523866012495
  H          -1.27581402038831     -3.29545980269342     -0.23349568984278
  H          -1.14168562713901     -2.73542460048951      2.77298602995349
  H          -2.62762181636105     -2.70358616271484      1.70723467510546
  H           0.01991326269026     -1.51304731444850     -1.28525540970547
  H           1.14901821192178     -2.72895964408468     -1.90104806813767
  H           1.68634673060412     -1.06952338777478     -1.61961708208183
  F           0.61241187050996     -5.74808505813152      0.91616693499452
  F           0.46014389587705     -4.88882503268342     -1.06082098722043
  H           2.12711766055175     -4.83143413116714      0.01497765348807
