24
Coordinates from ORCA-job NEB_product E -36.570345715370
  C           2.71103443768930      1.20799456471724      0.35655506585377
  C           1.47093258195438      1.99350593053762     -0.05033892836774
  C           2.31924008533981     -0.00132473295464      1.19862155942938
  H           3.24768044288215      0.89537693678246     -0.54393527758073
  C           1.67275445565789      2.80045260878468     -1.31952442120173
  C           3.67238188795714      2.13917609450773      1.14069342541879
  C           2.95674749346763      2.85921716947494      2.24999650284262
  C           3.07087168578093      2.54340120337656      3.52569261027304
  O           0.44708394755080      1.98646667970052      0.57481826182574
  O           4.24670527431447      3.03814356682437      0.20473618511108
  H           4.47174268368031      1.51004712201793      1.56865916907924
  H           2.31842500108447      3.67060563803762      1.92884649387313
  H           2.52780893498652      3.06954505714196      4.29135635461358
  H           3.70438270960096      1.73583552793543      3.85616263630247
  H           1.77575295396333      0.32341097790583      2.08198836020854
  H           3.20136929029647     -0.55649169944120      1.50708235064959
  H           1.67407798884113     -0.66050253475096      0.62355629419424
  F           0.60474194451947      3.61079762227425     -1.58784057959083
  H           1.79275867484909      2.12566302597991     -2.17508166853670
  H           2.56410820926085      3.42879626880432     -1.21571346683467
  C           5.30105484460430      3.80365769837775      0.73664678196115
  H           5.66411052725476      4.43050417709933     -0.07519760932809
  H           6.11325309131592      3.15853003708290      1.09271097855847
  H           4.96268085314793      4.43409105978345      1.56560892124565
