23
Coordinates from ORCA-job NEB E -51.677773271120
  C           0.42262149401791      0.18569200461287      0.15268021247127
  C           1.01367319978874     -1.10510192365276      0.61261465646798
  O           0.90032746154978      1.43048851768293      0.37506238265905
  H          -0.65695665158185      0.03134874291762      0.62645578278056
  N           1.05390034239891     -1.41817460053432      1.99043271201916
  C          -0.03518889416798      0.00012133892895     -1.33972547972397
  C          -1.19523331252980     -0.82764954527406     -0.90630485215300
  C          -0.77317304889286     -2.17430008921700     -0.52268128796037
  O           0.66541831193093     -2.13481049296094     -0.18251446092334
  C          -0.39707735845370      1.27841705474583     -2.06992544318317
  H           0.70309994305000     -0.55115455461338     -1.92606941766779
  H          -2.19616896843639     -0.44865885500449     -0.83549977817594
  H          -0.74437971540389     -2.86347846794823     -1.37106182109882
  H          -1.38059585779150     -2.61584592896825      0.27832626191582
  C           0.57316118019397      2.10437713805370      1.58719154770774
  H          -0.49858267615210      2.32036533789006      1.62246704711320
  H           1.13152268698406      3.03620598759452      1.54796107175174
  H           0.86826190769883      1.51704091051294      2.45700814871689
  O           1.06107041405267     -2.59752630265187      2.30284261668751
  O           1.17398697787698     -0.49347845067070      2.79239727224471
  Cl          1.04240167494933      2.24060500500527     -2.43243779520104
  Cl         -1.18299964295238      0.81972180813010     -3.60945345448623
  Cl         -1.54908946812965      2.26579536542119     -1.14976592196198
