23
Coordinates from ORCA-job NEB_reactant E -51.753070192900
  C           1.24383617018845      0.08791113807303     -0.51034709539916
  C           1.18799308914624     -1.23405183770555     -0.78018841494312
  O           1.55891723569894      0.98770214431052     -1.43033103993289
  H           1.02520020407509      0.41730237756263      0.50158312322885
  N           0.78158970757846     -2.14146937451817      0.25886270889121
  C          -0.04806870720191     -0.06676772942565     -4.20452432639499
  C          -0.34156333860850     -0.83716424732783     -3.16894435612574
  C           0.41278668384695     -2.09379877136820     -2.84980282093687
  O           1.50757124744929     -1.80102207333106     -1.97197456051532
  C          -0.67754241961970      1.24331253608535     -4.51049966905327
  H           0.70741078447967     -0.35981001568142     -4.92011547294847
  H          -1.09402665586359     -0.53556412447287     -2.45352100589607
  H           0.89080302413610     -2.51197545669628     -3.73606049459157
  H          -0.24235449354425     -2.84390305211941     -2.39278286236961
  C           1.53513632715633      2.34704527118565     -1.03332989039644
  H           1.87092021893956      2.91730497301546     -1.89665215863743
  H           2.20592363644359      2.52368427093890     -0.18917550984597
  H           0.52122288628209      2.65493813526801     -0.76493653597572
  O           0.63895240506107     -3.30583492938231     -0.04892519085587
  O           0.58332268597849     -1.68216156009353      1.36904884537025
  Cl          0.60312650553156      2.46458302377188     -4.74705293871188
  Cl         -1.61596211256951      1.11873334232054     -6.03269498243228
  Cl         -1.75929508458442      1.82780595959030     -3.24003535152763
