21
Coordinates from ORCA-job NEB E -46.049229795610
  C          -0.33682841336341      0.67592087797688      0.86218136210555
  C          -0.83221613601538     -0.41505895543741      1.58599014951754
  O          -1.18573344601722      1.42865920013452      0.13108942417571
  H           0.52884906308630      1.18320016020328      1.28323091684126
  F           0.09524343289463     -0.86834076572053      2.50809367098962
  C           0.48853096549130     -0.57705413930605     -0.65893127485043
  C           0.11928444807544     -1.88700682328298     -0.39032557992784
  C          -1.24143900549589     -2.17486319692549     -0.25634571901142
  O          -1.68177017336235     -1.24101387163577      1.22385678247035
  C           1.94795202748327     -0.23379344341309     -0.68138495324296
  H          -0.09623367873861     -0.00976543779789     -1.37216651418192
  H           0.83783186062992     -2.53085772992579      0.10014440302308
  H          -1.54112576231909     -3.16554156683138      0.04749157222953
  H          -1.94471603976903     -1.65736350292335     -0.89319774605367
  C          -0.70476025410049      2.70110403789441     -0.26399691485736
  H           0.16229230033465      2.61553386920563     -0.92413594766985
  H          -0.43366284529762      3.30449145558068      0.60630162712080
  H          -1.52503916919431      3.17730405380709     -0.79658252349499
  F           2.15589029661603      1.09516039706688     -0.76866670493621
  F           2.60994890892821     -0.65052409253126      0.40186647113316
  F           2.57770162013367     -0.77019052613838     -1.74451250137994
