21
Coordinates from ORCA-job NEB_reactant E -46.082061825190
  C           1.49627191572630     -0.26665774834463     -0.15233007767875
  C           1.37960959972086     -1.50138093693373      0.32735034962013
  O           1.40432504233329      0.06143959609344     -1.48088559653943
  H           1.64721650013193      0.54208870530183      0.55010958060360
  F           1.41116485695236     -1.65863608866857      1.66516728034873
  C           3.39839220344769     -1.86875313884804     -2.94875408984847
  C           2.95429422520172     -2.53969952927141     -1.89951872433096
  C           1.50534628544014     -2.80558790333140     -1.63251306296966
  O           1.19479152644814     -2.70572903559571     -0.25704879427593
  C           4.84847316241238     -1.59306112802355     -3.18457996752602
  H           2.74510488023175     -1.45184317709598     -3.69958829397852
  H           3.63984441425654     -2.93055467936673     -1.15842319969417
  H           1.27153033952875     -3.84522437863674     -1.88560361850812
  H           0.87374907328661     -2.13437672126519     -2.22335536776659
  C           2.05689226164436      1.26541877659865     -1.82843249335635
  H           3.14385061895998      1.16585955738026     -1.74990713889784
  H           1.72344950993626      2.09169125664883     -1.19353269658410
  H           1.78545092736180      1.47087551584152     -2.86185957657023
  F           5.13031034425773     -0.28124193246965     -3.03936779419886
  F           5.66345368338473     -2.24707245643740     -2.34859367186918
  F           5.22997862933665     -1.91725455357581     -4.43073304597928
