21
Coordinates from ORCA-job NEB_product E -46.097871060540
  C           2.70755031876026     -0.34180710922811     -1.44552908020872
  C           2.63425918418402     -0.70715222648336      0.03058033942457
  O           1.46701138143185      0.10328089496893     -1.92465019998042
  H           3.48036663197030      0.43877390596522     -1.56488602112210
  F           3.74554862688988     -0.27304762357903      0.68401054423900
  C           3.08138432395406     -1.57615436530879     -2.30368997084551
  C           2.06091643976536     -2.67476661811828     -2.18067373985614
  C           1.36813244843075     -3.12878569669147     -3.20641589771511
  O           1.77871300095938     -1.25275554381268      0.62539274596018
  C           4.46184874960889     -2.10325788199961     -1.92668794724439
  H           3.13706971723931     -1.23988623132459     -3.34461834615306
  H           1.92484983815385     -3.07774599731742     -1.18783686369238
  H           0.64539036517206     -3.91612338864455     -3.08806672066011
  H           1.49143135797291     -2.73196628755326     -4.20018406435925
  C           1.04550233111862      1.33677080543310     -1.38118497046611
  H           1.79057848207878      2.12057442872760     -1.55948224855055
  H           0.84993375710051      1.26209650950608     -0.30718617196964
  H           0.12238668392288      1.58554713263522     -1.89887615914241
  F           5.39981905865348     -1.14274004880743     -1.96361608345552
  F           4.50281192688992     -2.63297486242941     -0.69895187696494
  F           4.86479537574292     -3.05867979593817     -2.77284726723739
