20
Coordinates from ORCA-job NEB E -36.820109976910
  C           0.56767151145063     -0.56782751880653     -0.41813260279383
  C          -0.25742864712450      0.55127234134855     -0.86194855930327
  C          -0.22129321657452     -1.87979107078697     -0.29351928899548
  H           1.40129877833840     -0.71691880838008     -1.10771747603818
  C           0.05766466038441      1.37147282084886     -2.06960728888167
  C           1.12305885933865     -0.12173041009869      0.98897401685721
  C           0.05925747244930      0.34413016147947      1.81053762146417
  C          -1.23007437313186      0.79821818756663      1.25247379855961
  O          -1.28644390137981      1.00712460674909     -0.12901438634394
  I           2.30019174687965     -1.81920538605710      2.03178346701694
  H           1.96776520665901      0.53577595156528      0.82130912897605
  H           0.04470178663128      0.14083346944515      2.86777320183000
  H          -1.48272907525747      1.78168489243133      1.67302675569147
  H          -2.04445493440988      0.12358424698039      1.55630808655074
  H          -0.89842374961937     -1.85780390216888      0.55614285973827
  H           0.45944415272666     -2.71629582999450     -0.16979858946510
  H          -0.80160394923822     -2.04206291308467     -1.19884616839725
  F          -0.96089750023573      1.35848200667063     -2.97163683267184
  F           0.23814316034440      2.68486356438167     -1.74967572621252
  H           0.96415201176897      1.02419358991034     -2.58843201758139
