20
Coordinates from ORCA-job NEB_product E -36.874573496260
  C           2.57196472629629      0.26819349413197      1.07602810334550
  C           1.44747676300351      0.91924859045718      0.30007258085411
  C           2.54945682845680     -1.24068256825241      0.86109628725573
  H           3.51812342615598      0.68214317106135      0.70765093819183
  C           1.53486517230034      2.46058465718771      0.15402489815818
  C           2.40288939461515      0.70541964231130      2.54250760177257
  C           1.16970723893486      0.18186628048696      3.18441878506524
  C           0.24583087199245      0.96495968678342      3.71196404793105
  O           0.50917892655475      0.34400667501417     -0.17248737665391
  I           4.14159635258830      0.06054866044553      3.71114702779235
  H           2.44000513156690      1.79220177301032      2.61781366906927
  H           1.06772549138924     -0.89357217190906      3.21363330342550
  H           0.33240623485730      2.03919557546408      3.69928676679925
  H          -0.64146711797155      0.56098786466489      4.16686441429114
  H           1.55764171546650     -1.64138514542349      1.05349480732976
  H           3.26932714550778     -1.73167596428107      1.51089883201384
  H           2.80719245488619     -1.46709996541479     -0.17079593054765
  F           0.84415356466369      3.04965761134772      1.16034167056973
  F           2.80558177896456      2.91151090865520      0.24930019071295
  H           1.10724389977095      2.80039122425900     -0.80066061737645
