22
Coordinates from ORCA-job NEB_product E -34.143247379400
  C           1.40391486975835      1.36631440878675      0.01452780577769
  C           2.32318194784283      0.87836637214837     -1.08863246092544
  C           1.73208427572851      0.68562942117732      1.35523783359582
  H           0.39161502815009      1.04819109369240     -0.27715671809938
  C           2.42976404656977     -0.57546385592813     -1.12524635474869
  C           1.38914431910277      2.91064656870446      0.09505970956637
  C           0.63058122711292      3.50876197905135     -1.06453170386823
  C          -0.47236931908615      4.21703227385740     -0.92173066526359
  O           2.89073610131017      1.57234838019308     -1.88905570707159
  C           2.72152099157727      3.47934305835379      0.09415748916785
  H           0.90574594478599      3.20345513175299      1.03591605898115
  H           1.05865531714059      3.32253147938350     -2.03919593069367
  H          -0.99230305677849      4.62790949169344     -1.76952843169345
  H          -0.90330896221980      4.41984967742706      0.04596125096769
  C           3.16702218560223      0.91302389359856      1.81691119640634
  H           1.55519218980915     -0.38802046168752      1.25132345491127
  H           1.03964971898547      1.05946838326029      2.11346735724765
  H           3.87628951013941      0.54687193280055      1.07680179681459
  H           3.34246213510077      0.37874133475207      2.74741752925193
  H           3.36770143529109      1.96781600332707      1.98624912708428
  N           2.51237836133395     -1.71580437669123     -1.17149930707724
  N           3.75024173274312      3.97658781034644      0.10264666966864
