19
Coordinates from ORCA-job NEB_product E -43.245645699280
  C           1.59883018077998      0.68948939150498     -1.56858279347124
  C           1.93049073319097     -0.67651499713125     -2.18844796282720
  C           2.66810126412918      1.08433312022366     -0.54675811857710
  H           0.66080330937878      0.57115056382545     -1.01054701650673
  O           2.51844486460568     -1.48198211613168     -1.31960948775954
  C           1.38171506654485      1.73786851097425     -2.68510163695901
  C           0.44879954615252      2.84786027754894     -2.26517707515015
  C          -0.70559453318648      3.07390045683225     -2.86116805914424
  O           1.65604445367576     -0.97570597616276     -3.31423072509087
  C           2.63750266834330      2.31399780527855     -3.12371577507812
  H           0.95209860890214      1.20300972633692     -3.54343738080692
  H           0.79044489600824      3.46408654819908     -1.44637215924019
  H          -1.05096736982882      2.47265254121301     -3.68665957160991
  H          -1.35310280221036      3.87389375909942     -2.54761569750670
  F           3.91210425264024      0.87114439057837     -0.98003374831995
  F           2.59093004872208      2.37902774412054     -0.20998870593787
  F           2.52842487563330      0.40027422737197      0.59721571854335
  H           2.73436052479418     -2.34224139238135     -1.71572384391168
  N           3.60956941172446      2.79655541869964     -3.47734596064591
