19
Coordinates from ORCA-job NEB_reactant E -43.225604095810
  C           1.75613704194002      0.22804229652600     -0.21299462078218
  C           1.41376737652758     -0.49352387840978     -1.29256553068919
  C           1.41845152388765      1.61525689411937      0.16326257167213
  H           2.33028754394909     -0.29561910772014      0.53259730410116
  O           1.80011522232078     -1.77688412606406     -1.32059580078177
  C           1.76961964057461      3.09375438797760     -3.57265984808546
  C           1.63330583096944      1.77654483903097     -3.44255273083934
  C           0.43153902204594      1.11708212185413     -2.84143937899703
  O           0.71128546213618     -0.20468027588416     -2.40119739387158
  C           2.89490770286825      3.67178389134691     -4.19176361608751
  H           1.02411699298187      3.78827156695104     -3.20986049150307
  H           2.40051260666897      1.10556047112905     -3.80591323315910
  H          -0.32508239294307      0.96712047468447     -3.62220285108731
  H          -0.01923295636543      1.72561663994878     -2.05537025066937
  F           1.93878978556981      2.57110620576609     -0.64420910833927
  F           0.08627467486006      1.87567223491874      0.18285691807019
  F           1.86240088931715      1.89578057418362      1.39150277886628
  H           1.48410882520948     -2.18686314826476     -2.13909092225864
  N           3.79979520748163      4.14977793790614     -4.70790379555894
