18
Coordinates from ORCA-job NEB E -26.019138510740
  C          -0.35480181834055     -0.18701676196111      2.09663127453231
  C          -1.52197657847673      0.18701782167785      1.59111236655131
  H           0.36821480405093     -0.72412055734602      1.51802408578915
  H          -0.12699007728526      0.04763540817947      3.11766357317066
  O          -2.44518287031349      0.82865286073760      2.35541981187793
  C           1.04749531711699     -0.50504234261564     -1.34082367481200
  C           0.22133762681134      0.33175253458423     -0.73390402316040
  C          -1.26766469676664      0.25651549865329     -0.84659401920530
  O          -2.00531174447367     -0.06349394558963      0.33736144437192
  C           2.53401713499498     -0.42049929282596     -1.27670654673809
  H           0.65040961193435     -1.31826253497389     -1.93551986471597
  H           0.60711945871788      1.14743247355881     -0.13752877553185
  H          -1.55590394740128     -0.51550998096592     -1.56652903993632
  H          -1.64176359021417      1.22859343035903     -1.20619013052181
  H          -3.25105352982338      0.92774092626558      1.83224179187074
  H           2.94259696530955     -0.24317355887860     -2.27140187121248
  H           2.94784286416443     -1.36134471816447     -0.91569454560586
  H           2.85161506999472      0.38312273930538     -0.61756185672396
