18
Coordinates from ORCA-job NEB_product E -26.060606035030
  C           3.16459778867538     -1.50895046342619     -1.27852801884170
  C           1.72937187331564     -1.19768188317627     -0.94647619821917
  H           3.80754399261356     -0.91331550031182     -0.63007661438274
  H           3.34429052722220     -2.56985646555846     -1.09870358974336
  O           0.87945451578015     -2.00716163101670     -1.59355128157215
  C           3.44871977936875     -1.18593185199476     -2.75780168018098
  C           3.13129206170847      0.25537423153224     -3.02821826103575
  C           2.23758080126660      0.66983849576983     -3.90511223455446
  O           1.35195555523637     -0.33238641179997     -0.20413938972710
  C           4.91362177827277     -1.47661035913176     -3.08455917357832
  H           2.80792440800227     -1.81902066588699     -3.37894052818404
  H           3.69482577606498      0.96817105872321     -2.44077223828638
  H           1.66202797927103     -0.02283273038175     -4.49811146034074
  H           2.03958915384735      1.71524331838829     -4.06891459639738
  H          -0.03694979596644     -1.76869674228123     -1.38380616560353
  H           5.56987234897215     -0.86118295559488     -2.47313631984743
  H           5.11251504110349     -1.25702708272067     -4.13081294814289
  H           5.14686641524531     -2.52247236113213     -2.89893930136188
