18
Coordinates from ORCA-job NEB_reactant E -26.028388643890
  C           2.45813505513603     -0.54544631484880     -0.35101741023289
  C           1.51123295659907     -1.06267892889271     -1.12138449148626
  H           3.17258031248352      0.16534850200289     -0.71164220074265
  H           2.53187538284249     -0.86555404078897      0.66879003986641
  O           0.63816391890026     -1.98989723102988     -0.66121999127320
  C           3.89630726373479     -1.36235114558983     -3.35605390840178
  C           3.38400227323591     -0.14765062670704     -3.44861265725336
  C           1.98179234126429      0.23633625830062     -3.07050011655575
  O           1.23819053718813     -0.77629761151255     -2.42906103128599
  C           5.28957313101336     -1.72408283347608     -3.74237751093387
  H           3.29416116168276     -2.17365205185192     -2.96992090619289
  H           3.97105937261949      0.67495131572056     -3.83513988511757
  H           1.40997658333248      0.46502261169739     -3.97818625799567
  H           1.99921601108823      1.13947655839253     -2.44408855411081
  H           0.02649921189818     -2.20291920427397     -1.37789752443311
  H           5.82432230849878     -2.12100292157677     -2.88006361528235
  H           5.82756972206286     -0.86004635728485     -4.12440429787419
  H           5.27704245641940     -2.49975597828063     -4.50741968069404
