20
Coordinates from ORCA-job NEB E -53.448209435070
  C           0.51568868410620      0.81403123637909      0.13947504461845
  C          -0.76206516670349      0.43678112572451      0.61215202385137
  C           0.56598945313615      1.74397571393303     -1.05188696050502
  H           1.20549565667586      1.18006651224101      0.89757739309781
  C          -0.94072032385927      0.25194073481101      2.10983673846698
  C           1.24541369338766     -0.80068077024052     -0.59319029637250
  C           0.22935199541294     -1.76608892552282     -0.57451356109698
  C          -1.01885213853440     -1.37010111010456     -1.12941067428986
  O          -1.58527705369700     -0.19093333620682     -0.14796577473732
  Br          2.83343311433009     -1.18870808547395      0.40185881853040
  H           1.51806608101404     -0.38019335547399     -1.55453838127091
  H           0.22169644488049     -2.48548784525382      0.23259414042685
  H          -1.82439348332029     -2.09266099387792     -1.06850726749510
  H          -0.98997778987232     -0.85661868107785     -2.08585667961458
  F           1.82058897493314      1.94140470779221     -1.47933746054619
  F          -0.13376535826450      1.33630075709139     -2.11635777355551
  F           0.08612122408734      2.94867230702040     -0.71755903036566
  Cl          0.03719582779417     -1.15349861514007      2.65353905504832
  Cl         -0.38771161125691      1.69036146669043      2.98593211247675
  Cl         -2.63627822424989     -0.05856284331074      2.48615853333269
