20
Coordinates from ORCA-job NEB_reactant E -53.485510893330
  C           1.61338131808507     -0.15100855296555      0.07279002249439
  C           1.58248047590321     -1.33774520611542      0.69284653851608
  C           1.94403250713016      0.18313881494606     -1.34224364859185
  H           1.35765096993847      0.72730758276811      0.64295623408727
  C           1.23930910954721     -1.40733607657523      2.17519538879927
  C           3.79026817757069     -4.86689595974671     -1.38746962070081
  C           2.63035857258731     -4.36005700353856     -1.00982358617058
  C           2.34406076211899     -2.89097395855297     -1.01108099365609
  O           1.85132711233193     -2.57511120208714      0.29100205866510
  Br          4.12661072400211     -6.71857733046157     -1.41071765064786
  H           4.62424921901325     -4.27572711659602     -1.73256127935092
  H           1.82420476132871     -4.98998746221134     -0.66400096172555
  H           1.57510158875022     -2.67151397428498     -1.76154069574464
  H           3.25155359081119     -2.32174939513389     -1.22987778723084
  F           3.22234936908569     -0.08307462078679     -1.68751675320955
  F           1.18274267471144     -0.45682477698561     -2.25266510220762
  F           1.76840950207720      1.48805711059856     -1.56394471873997
  Cl          2.77634184917179     -1.65882194691087      3.04974788682516
  Cl          0.45918382874505      0.03920012936517      2.80851185479335
  Cl          0.17268388709031     -2.79229905472523      2.47569281379567
