22
Coordinates from ORCA-job P E -35.606061951890
  C          -1.03962612045022      0.71292809426455     -1.98314995141757
  C          -0.67376922438634     -1.79188724945377     -0.42586222961133
  C          -1.06491872424808     -1.76076335255929     -1.86953653365444
  C          -1.22908807930373     -0.65210603312418     -2.57003144056523
  C          -1.12761871630580      0.68431257572263     -0.46107575726797
  C          -0.21696022425209     -0.42215876208021      0.07780704519796
  H          -1.21563535127415     -2.72407096495992     -2.33502346056681
  H          -1.51520504320074     -0.67153872823214     -3.61071636006253
  F          -2.01348239642382      1.56749900943801     -2.47923849633381
  H          -1.52721559892277     -2.13953721092722      0.16384154103045
  H          -0.08416019211759      1.14533410552010     -2.31848094464983
  H           0.13514238917982     -2.51420566534989     -0.29349963013273
  H          -2.16147745147586      0.47357624581880     -0.18050262071913
  H          -0.23926417463446     -0.39640395115804      1.17260199986634
  H          -0.84402412555591      1.65293491268111     -0.04892875659544
  C           1.22596604267054     -0.16334088037699     -0.33081319712301
  O           1.94154387671052     -0.94320784938417     -0.89945126779808
  O           1.62091461327163      1.05769373884184      0.04902071790797
  C           2.95981535835838      1.41205311394003     -0.27164577615249
  H           3.12825525894218      2.39206519979610      0.16680204469874
  H           3.09325583963679      1.44849272583740     -1.35468555635666
  H           3.65497204378171      0.67922092574529      0.14224863030561
