22
Coordinates from ORCA-job TS E -35.499997621290
  C          -1.44337452157352      0.56969136550301     -1.53542149048735
  C           0.00651059377465     -1.72327599032308     -0.59281803404762
  C          -1.27537582339510     -1.78876166726848     -1.00876620189213
  C          -1.98306844009075     -0.67481703006903     -1.52277258608269
  C          -1.24399650251117      0.89747273261106      0.65173900602937
  C          -0.47214416550201     -0.08445063529497      1.18733843907047
  H          -1.85178271714444     -2.68265410277740     -0.81536086725520
  H          -3.04339796941278     -0.77366934944403     -1.70489014245019
  F          -2.20038821417771      1.61472859271536     -1.91221893525241
  H           0.46952085344160     -2.55767326257552     -0.09426261431557
  H          -0.39179608386363      0.79716714389189     -1.61740181189223
  H           0.67037194198762     -0.94558886315641     -0.92106498431712
  H          -2.31182035140293      0.88021084712988      0.79178296135604
  H          -0.90896316809212     -0.92216769205598      1.70729589322749
  H          -0.80705542553075      1.85032969016549      0.40625241414148
  C           0.98096036164560      0.04273122655019      1.34751503967428
  O           1.65560869172238     -0.64247009250380      2.07716775197348
  O           1.50218382763705      1.03160585470082      0.58747562473787
  C           2.89952677144311      1.23546640681920      0.72052481090254
  H           3.15458875190091      2.04926257975437      0.04617412419178
  H           3.44475681674114      0.32793500280341      0.45142181284088
  H           3.14913477240284      1.49892724282403      1.75028978984682
