23
Coordinates from ORCA-job NEB E -40.933530425000
  C           0.21423661636803     -0.04768112891347      0.99105925255068
  C          -0.80456980430798     -0.97962849777762      0.72434110497071
  C          -0.19284053700039      1.27111141663339      1.59935862431264
  H           1.11546059022139     -0.46057357075315      1.43750655890414
  C          -0.43721389652196     -2.44903971613979      0.62840971854878
  C           0.74504824385728      0.36231998836860     -0.79551184719509
  C          -0.46642459856165      0.77794045574439     -1.35426309965336
  C          -1.54060348000995     -0.16033269568257     -1.44119028254432
  O          -1.86788749147961     -0.59763584133971      0.06594577834075
  C           1.89356519120398      1.33434513217724     -0.71584492092090
  H           1.07912961249530     -0.63527696118465     -1.06475355066923
  H          -0.71020570388400      1.83070909141140     -1.32929180993473
  H          -1.30276162972115     -1.11496175607038     -1.90463572875885
  H          -2.49290107478802      0.23096708754013     -1.78001393188629
  H          -1.12687384185233      1.61904535850214      1.16816547153380
  H           0.57500001375430      2.02707284506720      1.47264164590890
  H          -0.34323228494226      1.12110289435767      2.66789192400777
  F          -1.49311727962718     -3.25138507527740      0.78910499935033
  F           0.11000318806941     -2.79517397851870     -0.56850458065285
  F           0.47347888765674     -2.80426311732399      1.55070736289310
  H           2.59455800242200      1.05617249947109      0.06704574809377
  H           1.54730134467407      2.35004402469570     -0.54486038001477
  H           2.43084993197401      1.31512154501248     -1.66330805718498
