23
Coordinates from ORCA-job NEB_product E -40.963994134160
  C           2.73280361087921      0.60276049216710     -1.24084341541785
  C           1.49099547642649     -0.23765392188972     -1.23864692325355
  C           2.75973896514799      1.47755813166480      0.01117597746480
  H           3.61503336425285     -0.04415860193101     -1.26776582588292
  C           1.71965358763193     -1.68838918965334     -1.76631840532144
  C           2.70802980303951      1.42351405339127     -2.57251645109116
  C           1.58843668761552      2.42042344834979     -2.56692324261016
  C           0.45127976037315      2.25464422884672     -3.21547585295500
  O           0.39528347875711      0.10397863417189     -0.90128804116176
  C           4.05278159861959      2.11111180414852     -2.80174709597390
  H           2.54573365551357      0.71442910190399     -3.39094445168050
  H           1.76210876704533      3.31595883072827     -1.98698327843396
  H           0.25418187529142      1.37350078622573     -3.80445873801170
  H          -0.33308478003972      2.99068820864690     -3.18650455524181
  H           1.82610783880961      2.02464032054982      0.10546438030636
  H           3.58719845014729      2.17869961852852     -0.02814536114555
  H           2.88242509033365      0.85214401468835      0.89259062359993
  F           0.59259456451271     -2.38767627487361     -1.86196163801658
  F           2.30100220193048     -1.69801032470546     -2.97807752531489
  F           2.54430075613051     -2.35979272026089     -0.94370629114518
  H           4.86217930286985      1.38512125794982     -2.79810128947909
  H           4.24927978637556      2.85967914857407     -2.03907748220286
  H           4.04103615833637      2.60792895277846     -3.76884511703122
