23
Coordinates from ORCA-job NEB_reactant E -40.958378091290
  C           1.87921634430587      0.22333731811311     -0.20073463540864
  C           1.53264470672378     -0.57439411373202     -1.20902971936793
  C           1.94258488428070      1.71619355342094     -0.12629615805044
  H           2.13822397567766     -0.28175276380634      0.71819964118946
  C           1.53912189491704     -2.08056213556834     -1.01255377125566
  C           2.91028598768369      2.63001195387424     -3.51391748951455
  C           2.53415848682665      1.36486722548097     -3.42412573002182
  C           1.14313432013496      0.91197583132068     -3.08813883484517
  O           1.11438024609888     -0.37053692788519     -2.48693062587718
  C           4.28273808430647      3.07893334904245     -3.88334101425744
  H           2.19516404715426      3.42156734743655     -3.32313291600764
  H           3.23266856333046      0.56284933328890     -3.62013118695975
  H           0.57577511167457      0.76199399414751     -4.01486236320734
  H           0.61294037811747      1.64773923802644     -2.47518185022159
  H           2.35350091978303      2.15588831526487     -1.03049036874632
  H           2.56951524977926      2.00471302010369      0.71339910625911
  H           0.94894160689824      2.13138595187851      0.04462657249611
  F           0.33299102300661     -2.62205112347137     -1.23540450386358
  F           2.39072961193590     -2.68564104111043     -1.85539742545664
  F           1.89963865454945     -2.46133140416181      0.22089167837253
  H           4.24759331455067      3.67728083516085     -4.79317085987553
  H           4.94092789557487      2.22974384358284     -4.04553778304070
  H           4.69942469268948      3.70538839959294     -3.09513976233927
