16
Coordinates from ORCA-job NEB E -30.465885631770
  C           1.16547041069790      0.19748108911683     -0.63034383892436
  C           0.20312901248214      1.20529992283075     -0.82448470611690
  N           1.14483907915803     -0.91978205683368     -1.43825463627565
  H           2.16376771647599      0.49807301529719     -0.33179758538847
  Cl          0.62272970713584      2.76741468187068     -0.08821211807698
  C           0.36966970425303     -0.37538273142476      1.15563447645438
  C          -0.94773014135409     -0.67110368975574      0.83832219512656
  C          -1.79424014806000      0.37424100370949      0.44622296090788
  O          -1.01215857812699      0.96556342185071     -1.02331243336050
  F           1.20016351528633     -1.40981312452456      1.42705803398465
  H           0.64951156557379      0.50249466284562      1.72662086398181
  H          -1.17299338881696     -1.68249982929123      0.53024123063327
  H          -1.74148295998281      1.30891117229990      0.98939108021565
  H          -2.77804328347119      0.12701571289402      0.07818455923666
  H           1.70817348410205     -1.69299689472655     -1.11650784197281
  H           0.21919430464693     -1.19491635615869     -1.73876224042520
