16
Coordinates from ORCA-job NEB_product E -30.497769191860
  C           1.67046090491823     -0.61881401492111      1.86756827192902
  C           1.14620993952544      0.61120076266103      1.15085534988585
  N           1.29896669975085     -1.83823013813621      1.19682931820646
  H           2.76456009105720     -0.55986579456781      1.91754176752330
  Cl          1.81027215830270      2.12443759881449      1.77975320827721
  C           1.15158561509031     -0.61806346253196      3.33300732653960
  C          -0.30066946503098     -0.98172458376832      3.40987898537635
  C          -1.27737664387374     -0.10067162609063      3.30914645905826
  O           0.37970823858115      0.62507759655547      0.24731119892607
  F           1.89880794087269     -1.52533446683510      4.04529494688032
  H           1.34942984910065      0.36227828149234      3.78475427229045
  H          -0.48963521568258     -2.03661894890272      3.54348419287876
  H          -1.08640321095145      0.95239673956971      3.18066695986129
  H          -2.31062429620156     -0.39699228245671      3.34854483534764
  H           1.73237236728813     -1.89881136907445      0.28339325891223
  H           0.29323502725297     -1.89126429180803      1.07656964810719
