16
Coordinates from ORCA-job NEB_reactant E -30.485830469200
  C           1.93733938465008      0.12932390184813      0.17545143985738
  C           1.60955630862168      0.44234901267473      1.43070311225093
  N           1.80859298771408     -1.14113950196990     -0.35807548693129
  H           2.27935402147703      0.89674489819513     -0.49982599877648
  Cl          1.66393339723762      2.11351058397113      1.95083767951332
  C          -0.47110307970690     -1.12914223410021      5.22271977400539
  C          -0.25783816973926     -1.37678416604118      3.94508781846893
  C          -0.04953810299703     -0.30139220882884      2.93268582763781
  O           1.25692119432329     -0.46705344556737      2.37261769236081
  F          -0.66246022112922     -2.11515487320987      6.10960777071708
  H          -0.53724608743939     -0.15327888822986      5.68215139754515
  H          -0.19756423197265     -2.39489971096127      3.59142235395758
  H          -0.13057282133568      0.69004790979758      3.39329662642207
  H          -0.79701341869423     -0.38553541129174      2.13050567124600
  H           2.50955898979815     -1.38927612927054     -1.03941052707220
  H           1.66527984919245     -1.85611973701593      0.34132484879753
