21
Coordinates from ORCA-job NEB E -33.826460484660
  C           0.58447419779618      0.48390499597050      0.87199533419082
  C          -0.69778559556499      0.10355449955524      1.31001600191643
  C           0.81262682495704      1.84024103268344      0.52160048521285
  H           1.43420567515791      0.01946808867898      1.36359421899149
  C          -0.86289722044108     -1.15032781794473      2.14664125472309
  C           0.54704866748829     -0.30802337067034     -0.93640150706408
  C          -0.58393639609000      0.32306904465845     -1.46079415843107
  C          -1.84614581219057      0.05117679440996     -0.90103532705638
  O          -1.74759179670387      0.56275249280721      0.72992747637442
  C           1.90399576651476     -0.02420380017310     -1.51602801995142
  H           0.42721289275719     -1.33585671942846     -0.60353246035086
  H          -0.44479482535649      1.26466138306864     -1.97288686104455
  H          -2.09879134138227     -0.98547600204003     -0.70191188580096
  H          -2.68581448721928      0.63945106691723     -1.24269438862660
  N           1.00724598001572      2.93581731717216      0.25296640302747
  F           0.34045235803509     -1.67550777546584      2.53585670466039
  H          -1.38715873348812     -1.92556184428362      1.57093450383544
  H          -1.43611016273481     -0.93147284065727      3.05431288596267
  H           2.69676080797993     -0.36102680551390     -0.85237825321896
  H           2.03292958515318      1.03728542720597     -1.71255543252617
  H           2.00407361531617     -0.56392516695050     -2.45762697482402
