21
Coordinates from ORCA-job NEB_product E -33.862740081980
  C           3.31431073527438     -1.68457191828445     -1.30937060796991
  C           2.11108988314731     -2.42036920094984     -0.71589904066184
  C           3.64022266158801     -0.46758819055190     -0.61501381591815
  H           4.17557172088788     -2.36163525375503     -1.25396244506482
  C           1.14898976872229     -1.52797444428902      0.04091854672999
  C           3.02682125094955     -1.40719406008754     -2.81794798934184
  C           1.93423993698757     -0.39153886305009     -2.97423904417611
  C           0.75687212324134     -0.64897148110261     -3.51231166325027
  O           1.95002071993425     -3.59455609264813     -0.88353477028161
  C           4.30234514877462     -0.92002589725310     -3.50550497966290
  H           2.71159213114039     -2.35625208178369     -3.26360993421544
  H           2.17932664370246      0.60321668272579     -2.62307347851936
  H           0.49856489722798     -1.63309419649931     -3.86823479472553
  H           0.00228164239045      0.11073160829825     -3.62214528364667
  N           3.91154101785755      0.50492537419775     -0.07776783989946
  F           0.03633850020821     -2.21222779598211      0.43076267832925
  H           0.82582901161024     -0.69603968550542     -0.59738115431794
  H           1.63227881290451     -1.13387147552405      0.94369371078054
  H           5.08809225416185     -1.66953355736797     -3.44094185099859
  H           4.65856058244375     -0.00100279894855     -3.04406235557865
  H           4.09951055684538     -0.72342667163897     -4.55557388761071
