21
Coordinates from ORCA-job NEB_reactant E -33.862097672490
  C           1.56724049927984     -0.11950880639650     -0.14279079840959
  C           1.42099329736884     -1.42274971734395     -0.43730216433424
  C           1.68574018117962      0.96316851470886     -1.02277400438051
  H           1.60231465237244      0.16020128348097      0.90144520806666
  C           1.31609688599847     -2.45797434869602      0.65942639845560
  C           3.54687403278807     -1.60319001987056     -4.19651862827277
  C           2.91376856107942     -1.05973770795646     -3.17016858898756
  C           1.47477242648671     -1.32514212666930     -2.84633410868978
  O           1.32176783059996     -2.04482285253252     -1.62178581955141
  C           4.97265869879278     -1.34569317588935     -4.54195412606314
  H           3.01876925430957     -2.27587310165991     -4.86090242424581
  H           3.42985165552933     -0.38507752217197     -2.50166062448765
  H           1.02916534605590     -1.98161426045270     -3.59789243817316
  H           0.90843445780797     -0.38849199377614     -2.80135251978253
  N           1.80255098125132      1.89563644954607     -1.68470370309156
  F           1.34407331653931     -1.89930645807710      1.90412614570426
  H           2.15568476327166     -3.15971070237158      0.59370030482270
  H           0.37412202769534     -3.01007324449066      0.56546447189129
  H           5.43117266109364     -0.66530022426655     -3.82960475482148
  H           5.04179801181961     -0.91207971206453     -5.53884593347603
  H           5.53085045868017     -2.28136027305013     -4.55117189217329
