20
Coordinates from ORCA-job NEB_reactant E -54.124159228080
  C           1.49361986535685      0.17156495909106      0.03692536389207
  C           1.47116867748562     -1.10758390308670      0.43724536065848
  C           2.44557154839789      0.88272433207827     -0.85091316765517
  H           0.70357156587617      0.78764191096148      0.44402358654065
  C           2.48823447484956     -2.16952835788982      0.03081649019266
  C          -0.81029838709369     -3.67772561108708      3.49043109186849
  C           0.16224297878325     -3.44123244624052      2.63031099979007
  C          -0.07744701610450     -2.77423348498104      1.31223059590757
  O           0.50583122545437     -1.46074644602199      1.30525908360440
  F          -0.58382397889958     -4.27480893874155      4.66275565270672
  H          -1.85704959756636     -3.44663702750873      3.34881252726475
  H           1.17975886159610     -3.70625287556618      2.87386599877570
  H          -1.15003305607010     -2.61561679646936      1.15913071910868
  H           0.30429672734516     -3.39052587039076      0.49465755794279
  Cl          2.76955322791555     -0.01181733931238     -2.35819412247333
  Cl          1.73989527189593      2.45077213360508     -1.30658716302299
  Cl          3.99551938652493      1.21238955661297     -0.01617390004183
  F           3.69562277925569     -1.67948971541145     -0.23131623849207
  F           2.66663859275242     -3.07350417784822      1.00558384233053
  F           2.09582685224476     -2.85898990179308     -1.05616427889818
