20
Coordinates from ORCA-job NEB_reactant E -34.150938553250
  C           1.65899895603670     -0.22087771994221      0.19732228910110
  C           1.59236831578233      1.00952545227640      0.70266762847087
  O           1.54504858154763     -1.39160631887876      0.92948605875828
  H           1.77042524439575     -0.31070475471405     -0.87206632611263
  O           1.64373207357636      2.06819949036893     -0.15775575710170
  C           3.80200597383107     -0.89876124774011      3.04846900677518
  C           3.27911154916836      0.31958193312735      3.09154004979020
  C           1.80160370855298      0.56390472451378      3.04943105811402
  O           1.44032380413538      1.43998932418715      1.98682366564678
  O           5.10434546284439     -1.26077888227400      3.07307036813448
  H           3.17419404517853     -1.77816245927310      3.00255810722115
  H           3.88913748920454      1.20943388158405      3.12694358740391
  H           1.47440176477988      1.10257443347714      3.94490426595123
  H           1.25554187916317     -0.37847013856887      2.96808216903674
  H           1.99523069932925     -2.09342347311448      0.44961230940598
  H           1.51504856741874      2.86597523797017      0.37177420325259
  C           6.06482738918651     -0.23159557451153      3.12616714207168
  H           7.03530910247983     -0.72451530916407      3.13227171352485
  H           5.95255400208150      0.36747994718511      4.03515117452618
  H           5.99189139130709      0.42303145349109      2.25214728602910
