20
Coordinates from ORCA-job NEB_product E -34.168713926130
  C           2.93812478837585     -0.07793545096130      0.83098304465680
  C           1.55137363596367      0.51159892877605      0.62047320217864
  O           3.13450545086627     -1.16690601145566     -0.02538511138433
  H           3.68164913021943      0.70796209245349      0.62599497506036
  O           1.60387298426343      1.83617414248979      0.44676799434685
  C           3.02619858228857     -0.53716166568126      2.31438706886482
  C           2.96179457832810      0.64813334772475      3.23157493738712
  C           2.06128144335882      0.77767793542274      4.18727121306677
  O           0.52531751277666     -0.10574638931130      0.64438810639259
  O           4.15425869441468     -1.37878016608518      2.48246881408761
  H           2.17547849525519     -1.20460701268844      2.49959237041085
  H           3.69352316896356      1.42427137076628      3.05236987656566
  H           2.02649045438488      1.64895213598928      4.81890690803614
  H           1.32017655112983      0.01837775939591      4.37306075697970
  H           3.56519300204450     -1.86633365955704      0.49047742949689
  H           0.71056667311933      2.19759888296120      0.32399814746039
  C           5.41304175265376     -0.74639403181455      2.57694323780190
  H           6.14348246321330     -1.55359803257547      2.58625433395299
  H           5.50191123820885     -0.17162495961341      3.50348273366346
  H           5.61145940017130     -0.09315921623586      1.72218996097477
