22
Coordinates from ORCA-job NEB_reactant E -44.009044224830
  C           1.99458534327176     -0.03086204908819      0.29195994481045
  C           1.54299087779738     -0.60113641359222      1.40777524996730
  C           2.06836875666058     -0.76525277122142     -1.01197660038571
  H           2.33763578401490      0.99303655074542      0.30239322332137
  N           1.50342737624998      0.21243901473508      2.65307834424208
  C           2.69216551973365     -3.16490030459030      4.09495953961275
  C           2.90838191454250     -2.69351820014736      2.87661264080868
  C           1.98266449253692     -2.92175603390307      1.72515894613622
  O           1.04358087637502     -1.82695903003096      1.56294010604349
  C           3.56663998296032     -2.90883076991083      5.26923334784805
  H           1.82042623759523     -3.77784873344352      4.28231544251953
  H           3.76479456115404     -2.06213924650411      2.67468897787691
  H           1.33554709204119     -3.78203218569178      1.89696457427983
  H           2.54118384693574     -3.05078817916957      0.79134335079867
  F           2.04337423463343      0.09642687868578     -2.04756961419683
  F           3.24251962622958     -1.44852887811156     -1.11435669543138
  H           1.25070932623126     -1.49261535359715     -1.14314158705838
  O           1.09867147210502     -0.33982983766112      3.64271708510359
  O           1.88231721762383      1.35718174975753      2.57669290462657
  H           3.00432738960913     -2.36215408920032      6.02534335253765
  H           4.44177067333142     -2.32715391028598      4.99190658880350
  H           3.88781739836709     -3.84997820777434      5.71326087773564
