22
Coordinates from ORCA-job NEB_product E -44.017582926630
  C           2.14788430246340     -1.02127360705421      1.68503455741685
  C           0.93929046695831     -0.42914207156490      2.31868900997919
  C           1.87101076054851     -1.33596077342766      0.20539484069547
  H           2.97754160270873     -0.30675002943617      1.73007096306657
  N           1.27917054167550      0.66183122703335      3.37753678033966
  C           2.55677845018849     -2.30994318494551      2.46834061657735
  C           3.81490869276292     -2.86654944288943      1.86879593672774
  C           3.88758251678921     -4.04348790565909      1.27753731308912
  O          -0.20816352305839     -0.67005836341741      2.15521707622235
  C           2.77320263017654     -2.00284953989452      3.94984450546415
  H           1.74749163733252     -3.03857545017829      2.36158951905648
  H           4.68698812270066     -2.23363813845208      1.96137454001089
  H           3.02377715579497     -4.67814621525293      1.16782112559940
  H           4.81177299395702     -4.41695843729673      0.87279747683658
  F           3.03423540670434     -1.40223524723843     -0.47906781810228
  F           1.26134489177130     -2.52584353426660      0.04359754573208
  H           1.24308118883667     -0.57052255068984     -0.27870333733900
  O           0.38249254711276      0.95682823168499      4.11621300489665
  O           2.39450619464694      1.12250882130211      3.35348087472150
  H           1.83735725303117     -1.74341989728190      4.44230252876072
  H           3.48089426920307     -1.18656284466757      4.08051504953685
  H           3.17645189769535     -2.88475104640717      4.44161789071168
