25
Coordinates from ORCA-job NEB_reactant E -35.933935652440
  C           1.83440026497531      0.05909233751842      0.02915823920804
  C           1.85463373459227     -0.87140891588148      0.98373708010286
  C           1.51543498167842     -0.20370988867655     -1.40967637124318
  H           2.07680898851778      1.07756166982732      0.29389082734405
  N           2.23699600585755     -0.62646743422341      2.30399054178547
  C           3.78321515844635     -4.55010820533534      1.94200513856936
  C           3.52686556627191     -3.33222456009437      1.49647831440808
  C           2.59115459303420     -3.03490829483763      0.36423906095547
  O           1.51496074869122     -2.18760067034624      0.74657922756963
  C           4.71133316232924     -4.86699656828822      3.07096599386695
  H           3.33109454254954     -5.42407487542651      1.49272254070474
  H           3.98054627526655     -2.46935340834561      1.96423249983249
  H           2.11620486727593     -3.95089742489741      0.00274058610792
  H           3.15279108207477     -2.57065840293296     -0.45913592871409
  C           2.71865492340818      0.06976675695362     -2.31383256501658
  H           0.69066006916199      0.44562344884330     -1.71874623594673
  H           1.18806900151950     -1.23791052715883     -1.52613900741310
  H           3.03652293541393      1.10573652387828     -2.21781350400921
  H           2.46411320410470     -0.11853327018545     -3.35459104284612
  H           3.55689426090078     -0.56871908161966     -2.04181422678908
  H           1.82586937761193     -1.27206135068046      2.96313724252765
  H           2.15819481403492      0.33653995166565      2.59274597679324
  F           5.25524977281926     -3.73986263181418      3.63160192897795
  H           5.55054941739013     -5.48519516034422      2.72632457734136
  H           4.18238225207362     -5.39583001759804      3.87439910588282
