21
Coordinates from ORCA-job NEB_product E -48.492270016330
  C           2.58181278057237     -0.31682519771280     -1.53511690884416
  C           1.41137850373493     -1.24829645967036     -1.64867877778877
  N           2.15575147383311      0.97156550789783     -0.91895236062555
  H           3.37965201027955     -0.74063479116263     -0.91844670064120
  C           1.75945850219782     -2.76403793476008     -1.46417937918264
  C           3.19652540998254      0.01112061327133     -2.95741834540206
  C           2.17607108124788      0.65015629158858     -3.85441210190970
  C           2.31895186930995      1.86015524187132     -4.36356272966767
  O           0.28139510840965     -0.94065944266330     -1.88393119462652
  N           3.76170126538271     -1.21655877026480     -3.46652804961996
  H           4.01836271609766      0.71147785959769     -2.76758261677667
  H           1.32024106873012      0.03923774421054     -4.10401820480305
  H           1.59089847140742      2.27748628553212     -5.03570991662213
  H           3.16305095563820      2.48542907450821     -4.12173937547947
  O           2.78245743675890      1.31228361382654      0.05215929142399
  O           1.25535222717734      1.56842332031084     -1.43770847359757
  F           0.82983259434628     -3.37237699087822     -0.72947852669190
  F           1.79259673806460     -3.37227377428593     -2.65832958871067
  F           2.93862385389891     -2.98030113328998     -0.87638626169636
  H           3.07902896888192     -1.77427346829280     -3.96633785772166
  H           4.55085696404815     -1.04659758963411     -4.07364192101629
