18
Coordinates from ORCA-job NEB E -38.664607061100
  C           1.10285140137403      0.26709041098118     -0.84167608742414
  C           0.85120955847833      1.59545623207506     -0.47710005251871
  O           0.52137216719698     -0.18252216967123     -1.97952262666430
  H           2.08501871989700     -0.13234558651238     -0.59486428296351
  F           1.71645597412095      2.05833260299693      0.50118636291289
  C          -0.06177802587071     -0.47813803550490      0.65697835354351
  C          -1.28615132669560      0.11512095264723      0.37252564702045
  C          -1.40452196932809      1.50876608784093      0.54800285089512
  O          -0.26161435158244      2.16296556343582     -0.54860233305905
  C           0.10056362532295     -1.96860306141984      0.51054370828803
  H           0.53338903320051     -0.09374579385182      1.47846923162344
  H          -1.94773810768803     -0.38237223652271     -0.32132969724065
  H          -0.99355008233676      1.93787184523512      1.45488545255776
  H          -2.31277176176984      1.98579041626613      0.20998404690518
  H           0.74840050030095     -1.10662534795566     -2.14275349749735
  F          -0.45848456550807     -2.44572552204852     -0.62858678699239
  F           1.41186201633438     -2.32023284280402      0.44686709272610
  H          -0.34451280544652     -2.52108351518732      1.35499261788763
