26
Coordinates from ORCA-job NEB E -42.077084704580
  C          -0.43214537380849     -0.42734183592401      1.97931705000938
  C          -0.69778017826883     -0.94465507577528      0.78015108965827
  C          -0.77419093123785      0.90223971239407      2.58535071917177
  H           0.11863703054037     -1.08422701128143      2.63580360145852
  C          -0.29980680272450     -2.35973173335547      0.43713512020414
  C           0.56411921819391      0.90279255719061     -1.96156183144939
  C          -0.57726106684539      1.59591512322581     -1.41040558228716
  C          -1.52458041545848      0.98315771749739     -0.46907731647893
  O          -1.35213778129886     -0.39513322114813     -0.29976418946797
  C           1.77707218495756      0.95077634220257     -1.42261453880447
  H           0.41107309010919      0.33484712074971     -2.87509154822290
  H          -0.77078807123298      2.60622221293073     -1.74183213510098
  H          -2.54709450196240      1.12902556829056     -0.85898099162209
  H          -1.49211687059218      1.53584574728418      0.48168178515077
  H          -1.84321930416072      1.11028022933840      2.53276685774963
  H          -0.21981546825850      1.72026610291302      2.11979572899763
  H          -0.49760942157544      0.89337361660014      3.63656592580417
  C           1.02171440224405     -2.40761642196017     -0.32891805746388
  H          -1.08792007616898     -2.79227378463842     -0.18101896378813
  H          -0.21368241714037     -2.94497455569379      1.35171290888908
  H           0.92338928718517     -1.90596313215015     -1.28787918188847
  H           1.31135242546415     -3.43886195129119     -0.51239252642154
  H           1.81094228037999     -1.92520658342914      0.24329470517032
  Br          1.00960998715595      3.97955746558155     -3.46520719576645
  Br          2.10131500651845      1.90843236062882      0.17389814445231
  Br          3.28092376798517      0.07325342981962     -2.14272957795364
