20
Coordinates from ORCA-job NEB_product E -35.828283689250
  C           1.35389265239355     -1.17111637069543      1.96242554834908
  C           1.04037377203831      0.23232437042408      1.48903544110709
  C           1.46759262180128     -2.13174466952277      0.78026930434740
  H           2.35413722009704     -1.08210469235114      2.41364471691385
  H           1.54603265925510      0.48741152454694      0.53836276671787
  C           0.35348203204015     -1.54417819660400      3.07678085162267
  C          -1.06360093255090     -1.60082631314374      2.57385616638919
  C          -2.04952175281656     -0.91152294560415      3.11541137496823
  O           0.35248644353207      1.02520505007086      2.06271373152911
  C           0.66874530835508     -2.82897028021713      3.83415443343042
  H           0.41552114824369     -0.73181435923371      3.81520251558548
  H          -1.24703218357689     -2.26150212802700      1.73827623532257
  H          -1.89282014438961     -0.24501422538963      3.94704950328382
  H          -3.05452344120689     -0.97805094416537      2.73718483794172
  H           0.49688978359252     -2.34765053176631      0.34257682539768
  H           1.93521441532692     -3.06711844348060      1.07486065619846
  H           2.09265447469174     -1.68248526682440      0.01128941453394
  Br          2.54982527499372     -2.93441428267813      4.37370642983859
  Br         -0.40216983492567     -2.88169056751730      5.48119400159293
  Br          0.24502048310536     -4.46003672782106      2.85470524492991
