21
Coordinates from ORCA-job NEB E -41.600359332930
  C           0.58504008239993      0.36911858511773     -0.47302927300782
  C          -0.32137607478571      0.57578203045276      1.69412980168707
  C           0.49367180978391      1.60241674050970     -1.29937270757510
  H          -0.26366285802255      0.64752228116020      0.53992529749741
  C           0.14921032190518      1.86606101752072      2.33392549721286
  C          -0.05030265542059     -0.83741085200617     -1.12493074840583
  C          -0.12480978123889     -2.03879543993788     -0.21695728682405
  C          -1.19368070682523     -2.80348233298520     -0.11526266710737
  O          -0.57293731319802     -0.44508878258888      2.25002171422431
  C           0.82872586589436     -1.18121444177846     -2.22717390284590
  H          -1.03923964527508     -0.63443366311228     -1.57425968340637
  H           0.77583768760124     -2.24097189644894      0.34352349817342
  H          -1.21549655040627     -3.65558491025409      0.54041071113958
  H          -2.09523621850660     -2.60867122852209     -0.67462903896290
  H          -0.46266759075821      1.75477918623307     -1.81466470162974
  H           1.25958390261869      1.47865808659966     -2.07019021314293
  H           0.74709006907602      2.49291814837982     -0.72873609173622
  Cl          1.88498917150762      2.08152945178874      2.00562558856204
  Cl         -0.76269872692543      3.22453913185220      1.62945944213881
  Cl         -0.13086584252539      1.81670170589672      4.08213609290825
  N           1.50882505310102     -1.46437281787734     -3.09995132889954
