21
Coordinates from ORCA-job NEB_product E -41.758059503680
  C           1.48521001219123     -1.53267081231382     -0.41614599089167
  C           2.25421321892927     -1.73158593643811      0.86615480018626
  C           2.15215894705297     -0.45072407380147     -1.27512169291217
  H           0.47085369341923     -1.21050203232464     -0.15843089188875
  C           2.25321215400416     -0.54409459771830      1.86217452192776
  C           1.38419778880281     -2.86306597692806     -1.19927736711657
  C           0.61803686959762     -3.91604569385337     -0.44014646462892
  C          -0.54437683802493     -4.39296547078115     -0.84100102610446
  O           2.87770970236169     -2.70983887316968      1.15174719084389
  C           2.70269121893114     -3.36650768389235     -1.52655618968472
  H           0.87035245246214     -2.65700720292464     -2.14677301519248
  H           1.08762301169228     -4.26777663022200      0.46662353109865
  H          -1.07071236228498     -5.14290422905115     -0.27677912176308
  H          -1.01966783757220     -4.05951120447576     -1.74975822887351
  H           1.61407776384479     -0.35133037469847     -2.21514924878881
  H           3.18210187955769     -0.72376810925766     -1.49421907398157
  H           2.13958431841217      0.51116685989117     -0.77222263912400
  Cl          3.75451268607867      0.36177530398035      1.52526287907112
  Cl          0.86891783843608      0.54308324011576      1.71610330141039
  Cl          2.31332957908114     -1.17318303084082      3.51990510968951
  N           3.73067390302703     -3.76464347129584     -1.82529038327686
