22
Coordinates from ORCA-job P E -35.419564796610
  C          -1.27273548802555      0.37103297933682     -2.30502878827207
  C          -0.00166786844132     -1.68409746469904     -0.99606313421634
  C          -1.38078630182735     -1.91944116678138     -1.52940421814697
  C          -1.98751060918619     -0.94378180267056     -2.18536176993030
  C          -0.76960623385903      0.76420148939512     -0.90198311904100
  C           0.08929673998880     -0.33533075552986     -0.26957505682165
  H          -1.82959331594849     -2.88921952431470     -1.38736574354286
  H          -2.97470453861221     -1.04178566473255     -2.60550091943360
  C          -2.16047953344467      1.46898619730419     -2.85295251074066
  H           0.31193781526524     -2.48541200477678     -0.32774564718757
  H          -0.41330883009786      0.27589382097601     -2.97870513495411
  H           0.69440739298205     -1.66361118735874     -1.84074612470595
  H          -1.64457262497245      0.93802294935214     -0.27272122104299
  H          -0.18455590411662     -0.45814617134979      0.78020073673869
  H          -0.20387382553521      1.69468912371696     -0.96035115591253
  Cl          1.81538244323893      0.16952198187866     -0.23617766449033
  O          -1.88543463845024      2.17804960887807     -3.78344778358285
  O          -3.30141605546910      1.56505304158804     -2.16047461214035
  C          -4.20634970041931      2.57555827892646     -2.58294021805156
  H          -5.07593628623528      2.49555649029489     -1.93590603459095
  H          -4.48729178678380      2.42091964312850     -3.62655633747075
  H          -3.74526085005033      3.56056013743754     -2.48721354246329
