16
Coordinates from ORCA-job NEB_reactant E -25.789210851000
  C           2.12782869134728      0.29659875618164      0.02210066914376
  C           1.56400960008708      1.51234980634796      0.06030279835735
  Br          2.78338449705328     -0.75513520593953      1.46172427562361
  H           2.24583764839076     -0.19947405191877     -0.92488419871633
  N           1.16470592034942      2.11014147534627     -1.12933931149376
  C           4.18526686588021      3.57141987276995      2.74477926544691
  C           3.50671375553853      2.68235872617265      2.04615481462083
  C           2.06352066378177      2.35828667606487      2.28469921561071
  O           1.28957208363122      2.34747133810420      1.09057663386168
  H           5.22786002822363      3.76180210220562      2.55844310419921
  H           3.72963252726402      4.13519688686356      3.54212801024690
  H           3.98046619685257      2.12784897899206      1.24799694172896
  H           1.59117930556952      3.13314822276115      2.89379171353891
  H           1.97303970973106      1.40249473328765      2.81415123155294
  H           0.54350253547955      2.89119828667252     -0.98106186930721
  H           0.87617997082007      1.48869339608818     -1.86736329441448
