22
Coordinates from ORCA-job R E -43.963895514880
  C          -1.36129057504603     -0.56151764042932     -2.46697822917173
  C           0.03051767486558     -3.20393827488333     -2.79564628732488
  C          -1.15272620641413     -2.87469279548293     -3.29800266453281
  C          -1.91018914145695     -1.70260259611648     -2.89508817966242
  C           0.19964674332315      2.92784288716060     -0.30148543806306
  C          -0.11996195326435      2.03578590919557      0.61519281092978
  H          -1.62357630464976     -3.51224415360892     -4.03533300650533
  H          -2.98571374500762     -1.78984557008424     -3.01864059690949
  C          -2.10882429191488      0.64860815277593     -2.07090154860174
  H           0.56377862659327     -4.08021282905018     -3.12094351747945
  H          -0.28816485951713     -0.43972378566659     -2.44546782092840
  H           0.50263555149296     -2.62317545988036     -2.01863925248964
  H          -0.19336644115362      3.92898934820881     -0.27211681156941
  H          -0.78694976016068      2.24341186055331      1.44345064253156
  H           0.85928269774736      2.69262911716538     -1.11976074409994
  C           0.38054910702075      0.62700014550510      0.57609787520223
  O          -1.61644090683116      1.74771764044257     -2.09078272001693
  O          -3.38228100927568      0.48242230701466     -1.67425233803826
  H          -3.63622133213306     -0.44946746395374     -1.64737762576110
  F          -0.62391586454427     -0.27034240011430      0.47689596390103
  F           1.20735706683133      0.36398547888951     -0.44563425769969
  F           1.05299492349494      0.28929012235895      1.69478374628968
