21
Coordinates from ORCA-job NEB_reactant E -42.845184134740
  C           0.93800777778114      0.00798319676582     -0.39292560906402
  C           1.44818571594316      1.01811950493099      0.34674876416144
  N           0.91263565637750     -1.35071922242103      0.03240872001577
  H           0.53864005780468      0.18596318904578     -1.37932581535498
  N           1.34631412503138      2.36410808441459     -0.27985247836591
  C           4.82595790707895      1.31855133994413      3.38708583372152
  C           3.51987393866065      1.16062640550238      3.25183120840148
  C           2.69059861003813      1.88857242161299      2.24050282259370
  O           1.91742378402765      0.89051098577666      1.55168249909246
  C           5.65896079556726      0.61341167011070      4.39905239114480
  H           5.35718972491710      2.01379979443707      2.74831835399656
  H           2.96999505748704      0.46658360854575      3.86929985493542
  H           3.32458172034052      2.44865945105949      1.54659475013644
  H           1.99850575841634      2.58325300921063      2.73171424775289
  O           0.48908275516722     -2.14942626125318     -0.77609176494342
  O           1.31107844117419     -1.62388469513463      1.14203545519623
  O           1.20802130470432      3.29698805298235      0.47371506046062
  O           1.38201303844987      2.41393973661161     -1.48205830240874
  H           5.05933291718935     -0.07130642213037      4.99167656908850
  H           6.13328293935098      1.33648402253119      5.06168504449641
  H           6.45141797449260      0.05428212745708      3.90360239494283
