21
Coordinates from ORCA-job NEB_product E -42.849696951060
  C           2.66051042664764      0.15389721439026      0.89613831818695
  C           1.41074318417281      0.93292781221815      0.63197965228463
  N           2.29942685558473     -1.20215536926469      1.40874957663653
  H           3.22780424997241      0.01220081164457     -0.03148000738286
  N           1.70053032164673      2.21225295771393     -0.21112489294275
  C           3.54224383375660      0.93187518094996      1.92565615148913
  C           2.68926358616463      1.50629752513315      3.02318809951718
  C           2.53068467897192      2.80220275599521      3.21459685106591
  O           0.29548241223888      0.74228524546588      0.96320762555592
  C           4.63327589080497      0.02246365160283      2.48780059540088
  H           4.01356060459377      1.74666157074331      1.36644448002893
  H           2.19920094144662      0.78370917690388      3.65999947422293
  H           3.01402866503282      3.53675557752177      2.58956845011018
  H           1.91755109409304      3.18507119338451      4.01087925640982
  O           2.67723387785862     -2.12753263037857      0.73812619012460
  O           1.67600729487714     -1.26660157925481      2.43127172982378
  O           0.77594011605057      2.96122778818612     -0.33276585161540
  O           2.81642114265524      2.33227540028058     -0.65359005948237
  H           4.21488192637825     -0.75133619812670      3.12746547594110
  H           5.31511443762880      0.61841253272709      3.08881348924052
  H           5.19969445942380     -0.44719061783645      1.68667539538441
