14
Coordinates from ORCA-job NEB E -28.920077057300
  C           0.23619653503696      0.42364973331473     -1.14701111680702
  C          -1.17910630521213      0.42348758733963     -0.89833647113143
  Br          0.77410904010022     -1.34251319109232     -1.92877798624201
  H           0.55200939478948      1.16459678228641     -1.87778616091143
  I          -2.35282014204801      2.09940232899670     -1.38290129468210
  C           0.98162784606756      0.61532900233744      0.22440651565018
  C           0.45179357350026     -0.31182642638167      1.17812290162525
  C          -0.85986178081751     -0.96053150841295      0.96379416273234
  O          -1.71918708007615     -0.37819640187221      0.01567941138053
  I           3.23352300525898      0.42005199638803     -0.03134895949003
  H           0.92306079663753      1.67545752401050      0.45738379493489
  H           1.11372202922784     -0.85939040428593      1.82808450495002
  H          -1.45067096834084     -0.94676689734321      1.88762798234005
  H          -0.70439594412420     -2.02275012528514      0.71106271565077
