14
Coordinates from ORCA-job NEB_reactant E -28.965704146860
  C           2.24670709573202      0.70797161064048      0.40658764582560
  C           1.49647976106514      1.22125898143210      1.37191486995174
  Br          3.26753742759655     -0.89490706782646      0.46140342463280
  H           2.31886760771061      1.19637570078375     -0.54892446815799
  I           0.47316463852634      3.03237618281170      0.93929322656352
  C           3.88454472061424      1.39339164404153      3.40281722514723
  C           3.37184246121481      0.18302949976516      3.51491693954761
  C           1.91556579834992     -0.12490390749287      3.31819793350306
  O           1.19707312846209      0.88617570040412      2.62791440065534
  I           5.92589224947188      1.80150089845187      3.66803022883228
  H           3.30597143790395      2.27138365215311      3.16684089001995
  H           3.98348635895591     -0.67212768413537      3.75953598127519
  H           1.41582527978090     -0.18157851577907      4.29215262655203
  H           1.79934203461564     -1.09364669525006      2.82061907565165
