18
Coordinates from ORCA-job NEB_product E -30.281741800850
  C           3.51221584534559      1.30542325575868      0.11539522502062
  C           2.10468031231900      1.34185866078585     -0.42436972081489
  H           3.70928818277114      0.31162944402539      0.51783126805483
  H           4.20380701615991      1.51210063774304     -0.70353583005399
  O           1.82874883543064      2.51464099490600     -1.01227391555384
  C           3.68611337466643      2.36675703962447      1.21653285503657
  C           2.70929365678439      2.11403961261478      2.32963111369473
  C           1.77641669936233      2.96878699530958      2.70073553086837
  O           1.30266365173830      0.45268682069444     -0.35478705674836
  C           5.12185390057016      2.34008278691405      1.74774639181620
  H           3.51177995126209      3.35885085267114      0.78920243043300
  H           2.81763172229865      1.15839440828068      2.82322422079780
  H           1.65526398824175      3.92387293263514      2.21477275892287
  H           1.09076525291431      2.75047956973217      3.50092029189528
  H           0.91516472759265      2.52037920786271     -1.33814380108482
  F           5.43517144072668      1.10606395339800      2.25911854108843
  H           5.24914913982061      3.06065275961963      2.56213033719390
  H           5.84499230199538      2.54060006742428      0.95006935943332
