18
Coordinates from ORCA-job NEB E -38.006513905500
  C          -0.95756382791522     -0.55956613908375      0.99233352301422
  C           0.28846179693741     -0.38369689445005      1.60492134610970
  Br         -2.37006242050310      0.55174984036727      1.61865186623136
  H          -1.31193961087643     -1.55461286549407      0.75503321650967
  O           1.21517640123027     -1.36460875578975      1.50424873527232
  C          -0.45229645920222      0.33613799192660     -0.82958778035094
  C           0.79057346466081      0.91969238551267     -0.62323468683172
  C           0.92588405862252      1.80409017468756      0.46122559727442
  O           0.72206588174402      0.77476822011910      1.87241708533321
  C          -0.56541021632283     -0.81610954017154     -1.79696880624424
  H          -1.32846872736746      0.96955617542846     -0.79420932909930
  H           1.66880257651749      0.37616301905843     -0.94817888256813
  H           0.10481602564840      2.47738144585309      0.67407914051040
  H           1.90309441342728      2.20802212870420      0.67994698842257
  H           0.86238363851102     -2.18666098841944      1.14027529370865
  F          -0.04081997129117     -0.50457909295819     -3.00448291831357
  F           0.14532443299174     -1.89183438840533     -1.34800791172537
  H          -1.60002145681253     -1.15589271688528     -1.95846247725327
