18
Coordinates from ORCA-job NEB_reactant E -38.050473944650
  C           1.24543147617394     -0.19780288000235     -0.65402086843206
  C           2.27883749999662      0.31619993830573     -1.32480699397832
  Br         -0.32060759242628      0.82376757046022     -0.39715504870111
  H           1.23534068103263     -1.17867491027102     -0.21765252183732
  O           3.42791558082179     -0.36513845263822     -1.56339128419763
  C           2.12830420651806      0.64110781042503     -4.46664188849008
  C           3.16448825552531      1.34231249093778     -4.03897315425715
  C           3.25796586376240      1.97664971599047     -2.68555507675798
  O           2.23521533561381      1.57414606695420     -1.79552972726699
  C           2.06056456838996     -0.00531429183282     -5.81492834726475
  H           1.25327349552757      0.46652606497726     -3.85780551702095
  H           4.02437525787200      1.50109492090790     -4.67394505486757
  H           3.13629770702684      3.06095381260131     -2.77483674201868
  H           4.24464753168793      1.76873012799373     -2.25444045066155
  H           3.37419102876327     -1.25931368848891     -1.20981782773014
  F           3.17767852070845      0.20817572770699     -6.54838507734544
  F           1.94456921220937     -1.35643505232790     -5.68769643800248
  H           1.19691137079634      0.33801502830059     -6.40961798116979
