18
Coordinates from ORCA-job NEB_product E -38.065550379460
  C           1.41936340007340      0.16234087014779     -2.18871072995247
  C           2.58243962724592     -0.03212516490296     -1.19704129738955
  Br          0.11835107699278      1.32462286243635     -1.32237113118770
  H           0.90806144912289     -0.79378638747404     -2.34440106851237
  O           3.42574414352372     -1.01590618593994     -1.50395609148057
  C           1.88313901447108      0.77073522145815     -3.53426798673236
  C           3.25295566373393      1.39448618262783     -3.40744481681224
  C           3.43219720234415      2.67205141967670     -3.13435063972376
  O           2.71245433868911      0.63294950844652     -0.21819531722623
  C           1.85995465979220     -0.30125305935441     -4.62702329907451
  H           1.17134117903646      1.54311339719932     -3.84258377085505
  H           4.09459075356518      0.72857109463764     -3.53979460528842
  H           2.60433891619523      3.34849968828943     -2.99898522989910
  H           4.41705581002062      3.08885439905080     -3.02346776766797
  H           3.25104425202753     -1.46894096555914     -2.34247921288788
  F           2.39673721842863      0.15798873246348     -5.77063958336865
  F           2.61205609921816     -1.38199761248941     -4.25753787355024
  H           0.84817519551900     -0.67550400071412     -4.84844957839092
