20
Coordinates from ORCA-job R E -25.517648520570
  C          -1.33399290398126     -0.16914033357990     -3.35694035360018
  C          -0.34964358629407     -2.72268076950755     -2.05800660353948
  C          -1.58439680242266     -2.23333392744594     -2.00786218795257
  C          -2.00430446519810     -0.93059251426311     -2.49500121381509
  C          -1.17654124589458      0.63411990939972      0.36914878088491
  C          -0.03366886017862      0.04327075445549      0.04147405808671
  H          -2.36650217808781     -2.82423994661277     -1.54553426047204
  H          -2.95917775780531     -0.58139165004703     -2.11868043547192
  C          -1.77255858798906      1.17762283244156     -3.81311446815923
  H          -0.11170477878675     -3.69873779077777     -1.67119066047859
  H          -0.39687524494810     -0.51367616644264     -3.77009705190519
  H           0.46845408343059     -2.16531188387803     -2.48201710073729
  H          -1.80715547036316      0.24085293174344      1.14755282305559
  H           0.31817036766386     -0.85381856574228      0.53323171269599
  H          -1.51287510390029      1.52634887298042     -0.13146222844632
  C           0.80484227598740      0.53698236394610     -0.97886089870670
  H          -1.88014673281027      1.19542700923357     -4.89746532978058
  H          -1.01496681273805      1.91579923991807     -3.54861583841343
  H          -2.72014976126423      1.46173262516430     -3.36046101305871
  N           1.48753356558049      0.93349700901437     -1.81029773018588
