20
Coordinates from ORCA-job TS E -25.508235451860
  C          -0.53763787309402      0.43299725183829     -0.99722198688844
  C           0.86117426616228     -1.88623732351568      0.05429340197310
  C          -0.47989117597731     -1.83937903039556     -0.10045253906046
  C          -1.16435084429195     -0.72606114316458     -0.64366862243623
  C           0.15440273674131      1.03224767531538      1.00876770184650
  C           0.90642533552133      0.04696021886882      1.58128982669064
  H          -1.08733102902086     -2.61502653616194      0.34791205135587
  H          -2.24514028183549     -0.73339153725368     -0.58438231969696
  C          -1.30437813621475      1.61171466855641     -1.50906286072606
  H           1.32835195245979     -2.69765978372668      0.58735157034388
  H           0.50223942778498      0.40495287283183     -1.28831542645911
  H           1.52899376549971     -1.26254560782710     -0.51141881292699
  H          -0.85480502956007      1.19561300712680      1.34518690614355
  H           0.48324436623557     -0.64901484790169      2.29023660799434
  H           0.64873784990561      1.86959455105234      0.54586733549272
  C           2.30554100050860      0.03518690675365      1.46241438900065
  H          -1.41457451596455      1.52912050606483     -2.59141134718607
  H          -0.78382516405264      2.54436618754493     -1.30398801015202
  H          -2.29813696363695      1.65720927020576     -1.06935608351123
  N           3.45096031282940      0.04935269378787      1.37595821820231
