20
Coordinates from ORCA-job NEB E -51.205469677340
  C           0.70186951474010      0.41948659761742     -0.51361142291961
  C          -0.61822310030002      0.81715003346394     -0.21268268188903
  C           1.02252750518510     -0.06646837820605     -1.90441891467156
  H           1.47127245449278      1.12875113486387     -0.20730407142668
  C          -0.81239115761991      2.04001351511706      0.64428670774859
  C           0.93535786139018     -1.18100105308858      0.59205660859535
  C          -0.25466558389646     -1.38317083881386      1.28829445955268
  C          -1.43433535103930     -1.46392164434228      0.49884418147419
  O          -1.60479072138749     -0.00413101676149     -0.24969539541279
  I           2.72176906991089     -0.91260100378519      1.70235472830463
  H           1.11786271391325     -1.82356716586535     -0.25854376334862
  H          -0.33808974690800     -1.05604442358251      2.31556951493116
  H          -2.37392471084529     -1.54312547713355      1.03429096440799
  H          -1.39024074942789     -2.10424304530762     -0.37645849463320
  Cl         -0.09498118285445     -1.28431047104267     -2.53764022120514
  Cl          0.93400945520339      1.36873397913733     -2.98952531073445
  Cl          2.68555447328302     -0.70241419519617     -2.00064322843947
  Br          0.00057248487821      3.60594776333336     -0.17178982935129
  Br         -2.69618470861946      2.35329277346222      0.91549830600544
  Br          0.02703147990135      1.79162291613012      2.43111786301184
