20
Coordinates from ORCA-job NEB_reactant E -51.242209092060
  C           2.26533497884001     -0.27749094012714      0.52072021824238
  C           1.35551847034181     -0.42229487767204      1.49127258861581
  C           2.48154808690553     -1.14423993116196     -0.66232691102096
  H           2.93426834482452      0.57140862956732      0.56623490592860
  C           1.27036246553305      0.65088929476898      2.55838591801173
  C           2.78844591054962     -3.04517356831412      3.38682149560835
  C           1.49072316381479     -2.85536073830717      3.23404966204467
  C           0.85766044731123     -2.73682486942555      1.87923762979108
  O           0.43289467572582     -1.38366157612852      1.65144649453162
  I           3.71968445018047     -3.16280972484433      5.26005066273816
  H           3.46822413356970     -3.16888223497692      2.55943342398974
  H           0.83181979030256     -2.72019234522821      4.08006844384864
  H          -0.07139049593707     -3.30821356296797      1.83285704451172
  H           1.54222937069203     -3.07056149793618      1.09733055942797
  Cl          0.98527288154002     -1.89233133698134     -1.26330929805010
  Cl          3.17776611123743     -0.16955536408078     -1.98363028989285
  Cl          3.66891398519317     -2.44456080420757     -0.27707648295804
  Br          1.11189194525161      2.43380424331522      1.79269697212450
  Br         -0.23892214390381      0.34532223114110      3.71073570167261
  Br          2.90015342802750      0.59642897356716      3.65530126083438
