18
Coordinates from ORCA-job NEB E -33.504894150900
  C           0.17841653242696      0.97748616807428      0.16086549521900
  C           0.22151535033974      0.60915090573791      1.50722190969045
  O           1.27600063203369      0.79748362167076     -0.61311419384150
  H          -0.45386710069882      1.82729338405431     -0.08838796481366
  F          -0.84681087269491      1.15144742658938      2.20916165127659
  C          -0.98610862453161     -0.70083310505264     -0.41593022733728
  C          -1.11069966155103     -1.53115011299928      0.68297927199981
  C           0.06030773600452     -1.95843520619151      1.31053670332461
  O           0.72882597938736     -0.40923124109853      1.99722129835004
  I          -2.73107785201975      0.08172490242393     -1.32466525379167
  H          -0.21791393685006     -0.91561293504420     -1.14419895432874
  H          -2.02627687605226     -1.50862135672682      1.25866113695083
  H           0.93233089212130     -2.15719704524669      0.70356988082747
  H          -0.01284670089224     -2.54406791531797      2.21342593105504
  C           1.24111466407943      1.44766211355046     -1.86844415965631
  H           2.19266070385267      1.22969082176057     -2.34829602633666
  H           1.13076630820054      2.52920291394111     -1.74744874903461
  H           0.42366282684446      1.07400665987495     -2.49315774955342
