18
Coordinates from ORCA-job NEB_product E -33.558817459250
  C           0.54092672877588     -0.95999775072116     -0.79260517194087
  C           1.52229387628460     -0.87542370825580      0.35768086527684
  O           1.16423058213586     -0.75162339794765     -2.02525229030198
  H          -0.26354745416094     -0.22391919230541     -0.61405252111995
  F           0.85779435628529     -0.66104671104754      1.53232404589778
  C          -0.03633982009522     -2.37985129648746     -0.80194060991633
  C          -0.81694989588948     -2.71839159201037      0.41331224112994
  C          -0.61084001246574     -3.81105456493328      1.12663852133468
  O           2.69428296139292     -0.97551890340067      0.35956496068725
  I          -1.31658352192095     -2.52662040126920     -2.55714059010405
  H           0.76953022792666     -3.09015860757140     -0.98536670056770
  H          -1.59241552439960     -2.01462511557343      0.68526004778164
  H           0.15180168993169     -4.52636597310650      0.86507032674776
  H          -1.19595118566910     -4.03007231847238      2.00198313186656
  C           1.56789688081988      0.57676884239044     -2.27345183480976
  H           1.94491493262545      0.58353579484053     -3.29328114080880
  H           2.36072651343447      0.89117956475197     -1.58851048528039
  H           0.72012866498832      1.26668533111931     -2.19173279587262
