19
Coordinates from ORCA-job NEB E -41.604675354910
  C           0.67788019415027     -0.87685104962952     -0.62029405722557
  C          -0.59480149596413     -1.24174399125807     -0.17133797649555
  Br          2.20058641089314     -1.60344560007136      0.26601010089999
  H           0.85427953186522     -0.81226588361899     -1.68735939062111
  C          -1.70638483949452     -1.08937223484945     -1.22487069884667
  C           0.74350383237777      1.08982018465614      0.01195970663874
  C           0.40669555092991      0.86140099655458      1.36680524057077
  C          -0.85578626467657      0.47498334462118      1.74500881374070
  O          -0.91611744830685     -1.30898147510039      1.03711843235808
  N           1.98513642874215      1.55132961715294     -0.30668062500251
  H          -0.03705204131697      1.43111356748785     -0.65825384572118
  H           1.22810629293158      0.70846898172156      2.05388520919165
  H          -1.71619371886143      0.78351624565214      1.17048672161271
  H          -1.05149208771451      0.22734596896483      2.77447081455049
  F          -2.88852130893242     -1.50370764635896     -0.78303467481979
  F          -1.86570313730894      0.19978915139350     -1.61387411649205
  F          -1.42761154948172     -1.77232258464447     -2.34769458241114
  H           2.74908775493689      1.22764610737480      0.26952384169226
  H           2.21438789523112      1.65327629995166     -1.28186891361982
