19
Coordinates from ORCA-job NEB_product E -41.621388358200
  C           2.00076351202482      2.02135967784643     -0.25637985217592
  C           0.88321461878655      2.27735803463834     -1.23692775324829
  Br          1.37560704614540      0.78556177151898      1.10721869711293
  H           2.86488281581996      1.55538326704893     -0.73327029157966
  C           1.27487634901282      1.94461876297208     -2.70801800253701
  C           2.36240216543670      3.39026990454123      0.35777280823136
  C           3.61507851146793      3.29491680794292      1.18106827154100
  C           3.63972934795473      3.39090211915957      2.49695602797198
  O          -0.21490683310125      2.65262123817710     -0.96707961349707
  N           2.43772701118034      4.29552162764979     -0.78209541203462
  H           1.52008012795653      3.71231375607132      0.97983023028034
  H           4.52369725076895      3.13683726522637      0.61305580091965
  H           2.74029863483645      3.54027945711993      3.07079404646205
  H           4.55753848594298      3.31569449616644      3.05365398709746
  F           0.39660195692452      2.40513214124177     -3.58748427986776
  F           2.48028116271489      2.43510004174401     -3.03725880051152
  F           1.35538517278900      0.61207967201372     -2.86154119216782
  H           3.27734537687557      4.13141558673275     -1.32821237855651
  H           2.44409728646312      5.26183437218834     -0.47948229344059
