20
Coordinates from ORCA-job NEB_product E -43.357499866630
  C           1.60145295607677     -1.89067598765445      0.06695941499197
  C           2.86344937034732     -1.68985228532252      0.86857804457083
  C           1.71030637960816     -1.15548722522499     -1.26466777953112
  H           0.76062181432865     -1.42807082677882      0.59916596077118
  I           2.46862331928494     -1.53092044259788      2.99296489678395
  C           1.30206589135120     -3.42342365651892      0.07595370999781
  C          -0.16220307834751     -3.68951149897492     -0.18567569692225
  C          -1.10766148102959     -3.43998638373632      0.70008186801876
  O           3.97529242774946     -1.68126386651703      0.47532764454078
  C           2.18694774851608     -4.27174161501031     -0.83585163689886
  H           1.52063467609002     -3.74523436842637      1.10338631657671
  H          -0.40135995295570     -4.10499270263222     -1.15290913673857
  H          -0.89167690737757     -3.02885483374771      1.67403962437766
  H          -2.14183246523522     -3.63966363396822      0.48552539615844
  Br          1.84618744198481      0.77482004876960     -0.81433558418998
  Br          3.23850698124904     -1.56284228910157     -2.37886577104429
  Br          0.09234047146758     -1.36683008439423     -2.32357559581456
  F           1.81045579040161     -4.14633812747891     -2.14612674238816
  H           2.06732102389273     -5.32902900599682     -0.57854259305048
  H           3.24432759259722     -3.99400121468739     -0.77143234020983
