20
Coordinates from ORCA-job NEB_reactant E -43.347910519860
  C           1.46403200715342     -0.78412690482088     -0.57258237006256
  C           1.81819359390387     -1.09580900371088      0.67837400269750
  C           2.07211889144720      0.25539281117354     -1.42120671905704
  H           0.64963519088465     -1.32755238371106     -1.03159785846685
  I           3.37065648986271     -0.16323089135455      1.75099795494952
  C           0.63343118312538     -5.22932274450146      0.45390854581178
  C           0.70184604746089     -3.94647198358729      0.13970570338937
  C           0.21611009589432     -2.84943068736389      1.03669001523344
  O           1.27990451339656     -2.00819355924390      1.48269622166258
  C           1.11515674340004     -6.33647858983408     -0.42473829386373
  H           0.20091317171543     -5.56140944497319      1.38724306264385
  H           1.15056483559806     -3.64812027737453     -0.79732608634608
  H          -0.19737013081065     -3.26449929802013      1.95860818437519
  H          -0.55408395915768     -2.24431429816332      0.54108150246617
  Br          1.91135235753703      2.07166832915369     -0.64954567456350
  Br          3.98746313419809     -0.07021312636541     -1.78513370004802
  Br          1.17234606205559      0.30719537872271     -3.15387352038407
  F           1.62558412942173     -5.86905352829870     -1.60591108538077
  H           0.29372201600083     -7.01831687066634     -0.67830973275385
  H           1.91482362691253     -6.90301292706030      0.06881984769707
