18
Coordinates from ORCA-job NEB E -41.860753737230
  C           0.55400269237368     -0.98449710587612     -0.14823593048932
  C          -0.33954662603770     -0.94703978954974     -1.22706716632321
  C           0.07660061464087     -1.59262666730578      1.14819976845492
  H           1.56517542801463     -1.32229749115304     -0.36080553036109
  I           0.57887791343179     -0.97889327457312     -3.18640768335074
  C           0.73987746490139      0.97580252937600      0.06119701387087
  C          -0.58468227555078      1.41845353939397      0.16610657880113
  C          -1.44833441877446      1.20553329974234     -0.94006067400311
  O          -1.48939813268001     -0.42913257763468     -1.15247421719562
  C           1.62920445309575      1.25719565239152      1.13818562602965
  H           1.24023611465316      1.09563506526735     -0.89925390554940
  H          -1.00738818210999      1.57578497822059      1.14593861222859
  H          -1.07609371996075      1.49289098705804     -1.92172399525922
  H          -2.49410254363824      1.44661487927348     -0.79814733193169
  Cl         -1.49299079508964     -1.02632892064085      1.71877814741827
  Cl         -0.07607377701519     -3.36490920384386      0.83786507048631
  Cl          1.27430008264882     -1.39154218952536      2.44875993721386
  N           2.35033570709666      1.56935628937930      1.96914567995980
