18
Coordinates from ORCA-job NEB_reactant E -41.889446624960
  C           1.85287767207295      0.16811360144731      0.37621641512790
  C           1.54005832582844      1.23385455409915     -0.35956769474643
  C           1.09164339807181     -0.35678303659448      1.53980009324634
  H           2.74070981311969     -0.39444789657304      0.13336689438874
  I           2.81618864451518      1.70123330491061     -2.00544396669900
  C           2.50690742788813      4.03749264007038      1.80482818560035
  C           1.62377998300718      3.92243561810707      0.81539679783379
  C           0.47470757406876      2.96651066226665      0.85657004572041
  O           0.50876202634960      2.06607601851783     -0.26047670277885
  C           3.59105307549487      4.93729170371679      1.75201945341480
  H           2.43216712802771      3.44824135328647      2.71051473795953
  H           1.72368417432622      4.50877680205984     -0.08861081677763
  H          -0.47202993859665      3.49977874022330      0.73024439513298
  H           0.45972837142233      2.41160933892456      1.79928987277269
  Cl         -0.66216890873467     -0.09628025099623      1.41857774185941
  Cl          1.37984145399411     -2.10720438321635      1.70097138363688
  Cl          1.67681394933324      0.42130477182559      3.06051780907818
  N           4.48147582981106      5.65759645792456      1.71848535522992
