18
Coordinates from ORCA-job NEB_product E -41.903903586460
  C           2.41105519061420      1.46876507727584      0.50053069457153
  C           1.44378740562325      1.21384701045250     -0.63012957748819
  C           2.38342913443943      0.30285369962748      1.49390194006879
  H           3.42845092928729      1.50925716333675      0.09298800698059
  I           1.99757840521806      2.31497717295782     -2.41764100505040
  C           2.10091951774134      2.87255125489011      1.10100124224533
  C           0.83929951314628      2.93615768552646      1.92527772702727
  C          -0.31828814837825      3.32445260018867      1.42571024714653
  O           0.47159761083676      0.55270073294565     -0.63859924421091
  C           3.22069642064983      3.36873117136582      1.87636183450700
  H           2.00000886435873      3.56010579960931      0.24818919098592
  H           0.94118755313050      2.66652826589786      2.96592192936694
  H          -0.43433375630427      3.60844753034004      0.39167700100856
  H          -1.20500235192411      3.36633146522194      2.03267335651486
  Cl          3.52199311788334      0.60357431345749      2.82983328578125
  Cl          0.78272602419540     -0.03037481682493      2.17330429567927
  Cl          2.92762479745145     -1.16311802360252      0.61641003102073
  N           4.07676977203077      3.83571189733368      2.46988904384494
