20
Coordinates from ORCA-job NEB E -47.815808878850
  C           1.07853178088210      0.28655982345790      0.55005250072382
  C           0.36899141375470      0.68419940730036      1.68927285876393
  C           1.33411611502859      1.38208002974690     -0.47026165891104
  H           1.95911674157045     -0.33027485717551      0.70941958608773
  Br          0.58735160164538     -0.42763509827063      3.26717956211434
  C          -0.28623428485482     -0.88158247280577     -0.21943758696774
  C          -1.41670711514260     -0.05735033322672     -0.25729042749167
  C          -1.91997316331572      0.45397742879928      0.97332527744935
  O          -0.71718250412486      1.33969866093501      1.60457814887979
  C           0.16871887286332     -1.54523745229796     -1.48945854574467
  H          -0.23432370186715     -1.59964855849424      0.60038885982459
  H          -1.66409660485609      0.46493215645381     -1.17000748037328
  H          -2.06920881621439     -0.26753972044307      1.77492906680941
  H          -2.72858239401316      1.17050588302784      0.90078124501194
  F           2.00254868300802      2.39861713861627      0.12304174179555
  F           2.14266380014528      0.93298565899646     -1.45110116531683
  H           0.42490831154209      1.80455631406323     -0.92458297815551
  Br          1.97431094835092     -2.26756340304069     -1.36171362009594
  Br         -1.04150225368957     -3.09384479431364     -1.76420433797298
  Br          0.03655256928751     -0.44743581132885     -3.08491104643079
