20
Coordinates from ORCA-job NEB_product E -50.485103130420
  C           1.53989009931740      1.16544646147313      1.96670537535367
  C           1.07429152596079      1.27599725202730      0.52869590973498
  C           1.67220436427979     -0.31133272686848      2.35607447955077
  H           2.54853237119319      1.59210492610968      2.04027433484963
  F           1.26959839531679      2.54754009985122      0.09679776559293
  C           0.55750034988069      2.00603351400071      2.82493856176984
  C          -0.88286996333816      1.68779810412808      2.50233243326822
  C          -1.69454906693991      2.55730988606945      1.93280031016317
  O           0.59302780692686      0.47399101781227     -0.17756529856833
  C           0.81595979565476      1.86616332693672      4.33451801456363
  H           0.74699202172666      3.05980574026529      2.58651281607564
  H          -1.22203875073426      0.70150210081644      2.78129520304530
  H          -1.37291299505191      3.54855143735990      1.65667683293836
  H          -2.71855613166464      2.30833415376294      1.71940494640254
  F           2.43166939757216     -0.95868206793281      1.46175101655368
  F           2.30139547290712     -0.44073154029921      3.53330433020458
  F           0.52077236569100     -0.96351741029311      2.44417689022941
  F           0.23544060767826      2.90839245006294      4.97266371093947
  F           0.25694754977520      0.75103271940428      4.84217069694540
  H           1.88480478384821      1.86426055531326      4.60257167038710
