22
Coordinates from ORCA-job NEB E -49.647984954060
  C           0.37407444229542     -0.76549608189592     -0.81976317744783
  C          -0.98933980713773     -1.00890268417673     -0.45353561813774
  N           1.33407118693187     -1.61677630371693     -0.34745083394357
  H           0.55541771713082     -0.41229389244724     -1.83050777050557
  C          -2.07935610963752     -0.50895064782740     -1.39346450341841
  C           0.45914754987436      0.93490314735962      0.22643412928292
  C           0.14876324833105      0.53065593149487      1.53621486404550
  C          -1.15080897425265      0.15661490190508      1.84368958850391
  O          -1.28877119374442     -1.31478708811507      0.73539199220149
  C           1.85705628804239      1.41970930038174     -0.03193191237905
  H          -0.26130477946657      1.53310075995440     -0.31789893053584
  H           0.95716431817972      0.17842400582442      2.16291449004053
  H          -1.97453691031634      0.68999248081061      1.39368941754685
  H          -1.35889555899917     -0.28050682028844      2.80658047242620
  H           1.15269392447880     -2.00271836893573      0.56795960240583
  H           2.29862764428838     -1.38883669397614     -0.52567788018191
  F          -2.12915457789825      0.85551126200923     -1.45795139368038
  F          -1.84438191020087     -0.92168438235603     -2.66024406398668
  H          -3.07297422430738     -0.86402912876228     -1.08425404795620
  F           2.80128490349468      0.67243862662684      0.56937601124501
  F           2.17687273525080      1.43987489608490     -1.33574530596617
  F           2.03435008766260      2.67375678004623      0.41617487044111
