21
Coordinates from ORCA-job NEB E -41.278816219850
  C           0.10099517385223     -0.86746472359078      0.96201024629856
  C          -0.97406636764014     -1.13767358269828      0.08165563727721
  O          -0.16229343962204     -0.29828478988024      2.15897849363907
  H           0.94152838455889     -1.54746635136974      1.02170691272125
  C          -0.79340049890364     -2.06587355407900     -1.08363310425082
  C           0.79888279675888      0.63396985959795     -0.15044175723548
  C          -0.27288813081872      1.53759541092560     -0.09038756284880
  C          -1.47471652145302      1.18826630600903     -0.72049607137931
  O          -1.93900886957329     -0.28525841820022      0.10065433626647
  C           2.11713530118407      1.03000434336849      0.44639433749007
  H           0.94645536902705      0.08998895155680     -1.07837599467557
  H          -0.29446644952652      2.24928726335063      0.72187593991795
  H          -1.42826158321413      0.76377204736986     -1.71570798755291
  H          -2.33933560546593      1.81325866587171     -0.55286725877003
  H          -1.03318074249049      0.12993791091698      2.09881548222965
  H          -0.75350075739492     -1.50128306647879     -2.01723418819315
  H          -1.64933289443768     -2.73471318491406     -1.14876310907729
  H           0.11296829232188     -2.65274038869772     -0.97586699807882
  Cl          2.85916662237397      2.27238187993119     -0.62603540414790
  Cl          1.98808063561818      1.72272092361675      2.06574924746515
  Cl          3.24923928484540     -0.34042550260616      0.50196880290470
