21
Coordinates from ORCA-job NEB_product E -41.318307682050
  C           3.00457523961718      0.98488785225510     -0.46210643687802
  C           1.66540850936936      0.44080676320275     -0.96756291378794
  O           3.11452581358268      0.77397943890660      0.90826044670806
  H           3.83395458828614      0.46842979186232     -0.95915430260956
  C           1.57152165636386      0.13496268266831     -2.43002645188816
  C           3.05058644966546      2.50149434087373     -0.84367531510777
  C           2.15008351481553      3.28704154939086      0.06652540798590
  C           1.02679043612996      3.85065593306735     -0.33251162782151
  O           0.77039411180588      0.26642761967377     -0.17902136625627
  C           4.47627501105574      3.04559709738420     -0.79045436635797
  H           2.71168971769931      2.61255715366622     -1.87843864439906
  H           2.47064422705319      3.34041329429191      1.09650730325316
  H           0.69436690674588      3.80253459967402     -1.35664886013265
  H           0.39302510234488      4.38725321195023      0.35097591626619
  H           2.21057791836693      0.68248638567323      1.25602641661278
  H           2.30180333556406      0.68664084704270     -3.01349000607181
  H           0.56341631260470      0.32621267679148     -2.78952138409109
  H           1.76905595567533     -0.93000826906496     -2.55392347099310
  Cl          4.45100112318543      4.78027654144687     -1.21272425493314
  Cl          5.22376705004447      2.86309628431885      0.79865684701017
  Cl          5.49663702002404      2.21875420492447     -1.99529293650821
