21
Coordinates from ORCA-job NEB_reactant E -41.305395827000
  C           1.83448490014225      0.51020466817495     -0.00238986459704
  C           1.41778817439975      0.57321507142727     -1.26573995508232
  O           1.94624589251753      1.57330960351109      0.87511681796231
  H           2.08377054417556     -0.46013280113836      0.40379767634443
  C           1.26064685806926     -0.66753535794068     -2.09601700787650
  C           3.45885368563392      3.82192034745947     -0.46996879002379
  C           2.84424847810707      3.18504158664214     -1.45344716394180
  C           1.36390592088657      2.95610984433043     -1.49598686518240
  O           1.04789855790834      1.67680505073470     -1.99537888301777
  C           4.92173726874298      4.03787910169657     -0.35762517283456
  H           2.90071926733131      4.21667007892640      0.36734039369927
  H           3.39408454253060      2.76598611151959     -2.28467246303831
  H           0.91231928814178      3.64810381724219     -2.21671310882047
  H           0.91908090959655      3.12056915206420     -0.51005837537577
  H           2.57338770447822      1.34504555007890      1.56768756192251
  H           1.90785009820168     -0.61022993506618     -2.96929036982619
  H           0.23400564915248     -0.74045975498400     -2.44920093991609
  H           1.50710927228143     -1.55472304049810     -1.52322272587693
  Cl          5.26623858753825      5.77693942998170     -0.11406129741807
  Cl          5.52428822339737      3.15674186590571      1.08177580712127
  Cl          5.84333617676708      3.48433960993200     -1.76034527422178
