18
Coordinates from ORCA-job NEB E -35.942318097270
  C           0.56382516168436      0.38430604705956      0.91486007366535
  C          -0.76142245434271     -0.21508908474031      0.89333259022447
  N           0.68373073937791      1.78249818290586      0.89050313000501
  H           1.24845793261721     -0.08479754536967      1.62188503543688
  N          -0.82892365358877     -1.60548131872010      1.30612277765532
  C           1.11217859679410     -0.17227054170238     -0.65969562901037
  C           0.15044622123947      0.29135255520816     -1.60105468110479
  C          -1.13934736751275     -0.25538743574281     -1.56554366276261
  O          -1.61190926589599      0.18008919958055      0.03937715702197
  I           3.07747972710744      0.62840805125987     -0.89202404239607
  H           1.19401227484320     -1.24767046311819     -0.53317804111278
  H           0.29037293444559      1.27350211643964     -2.02913982831684
  H          -1.26491794839617     -1.32728908781926     -1.45360621634997
  H          -1.90136525406218      0.20705312400407     -2.17698386843117
  H           1.05176963994157      2.18847566179240      1.73573790082389
  H          -0.15474848253563      2.25025019910312      0.57264128072276
  O          -1.74902077074467     -2.26917228960572      0.87417744550626
  O           0.03938196902802     -2.00877737053481      2.06258857842270
