18
Coordinates from ORCA-job NEB_reactant E -35.977834167380
  C           1.58585888214445      0.14461079584939      0.14469275718672
  C           1.75138499305873     -0.90204574043457     -0.70090159958330
  N           0.84257260165671      1.22945981224694     -0.13682419164265
  H           2.10716946481822      0.11967934919244      1.09119682194927
  N           2.56707017521450     -2.00268562704366     -0.31410845488542
  C           3.09401347538352     -2.34538391755642     -4.21802848817879
  C           3.06153445382750     -1.36666026773968     -3.33517140015091
  C           1.81424866102915     -0.57845169046397     -3.06049495401545
  O           1.09814627703495     -1.01318817967056     -1.89869660070121
  I           4.81883074452009     -3.45922212710249     -4.63078879641323
  H           2.23945199346002     -2.64519386670256     -4.80021749370579
  H           3.93644850424436     -1.10630431729149     -2.75651284069552
  H           1.09363722886875     -0.70381017777883     -3.87121644103963
  H           2.06953481278616      0.48572793808883     -2.95361389028944
  H           0.60692386389336      1.87805823568220      0.59268013613880
  H           0.24378174591233      1.19150357049058     -0.94687653120986
  O           2.64701469138308     -2.94365325280235     -1.07967065863949
  O           3.13617743076411     -1.93404053696379      0.76455262587589
