16
Coordinates from ORCA-job NEB_product E -36.596248031780
  C           1.79334450341029     -1.72939134907007      0.58888744153485
  C           1.06299504620489     -0.45236770611164      0.97108588524544
  N           1.69496026816378     -1.86503602907590     -0.90826155487984
  H           2.85897830250112     -1.62411734828595      0.82107968918311
  Cl          1.53513014487848      0.09382403152474      2.56982496633731
  C           1.16965743910400     -2.88119447171673      1.38178402900157
  C          -0.31278776289720     -2.96835209314293      1.26002574031004
  C          -1.11220244994188     -2.94972331229671      2.31134263681739
  O           0.24644623970686      0.11801369710201      0.33685521398227
  I           2.09049042956059     -4.76885136790109      0.77557096480082
  H           1.45744988227669     -2.76305187969642      2.42808816576142
  H          -0.70380045557809     -3.06826507617890      0.25835371497873
  H          -0.73410293845917     -2.86530883388690      3.31779475327649
  H          -2.18016181472413     -3.01536716149035      2.20433270630462
  O           2.37689590899931     -1.09519289358917     -1.52657227717957
  O           0.96190725679446     -2.69891820618399     -1.35579207547465
