16
Coordinates from ORCA-job NEB_reactant E -36.588642268220
  C           1.94401417650809     -0.06645362271354      0.03647256163277
  C           1.22871842176486     -0.70054965428127      0.98998101159561
  N           2.27623564810035     -0.65252408376771     -1.21036690891693
  H           2.30701575936318      0.93780500852048      0.17256200238705
  Cl          0.89113089550506      0.15905035676582      2.45621924441534
  C          -0.22254396058938     -4.99985163337933      2.15740036143520
  C          -0.31333733566102     -3.93002992549432      1.39138471993430
  C           0.00967886888319     -2.55054749549411      1.87674495057149
  O           0.78513479785268     -1.92251120982244      0.86252900735067
  I          -0.72023884251625     -6.92428403536434      1.49653478592365
  H           0.09001165080636     -4.96904347559847      3.18821375529947
  H          -0.61537097338930     -3.98640926212252      0.35658042756718
  H           0.56620221909534     -2.57780753165840      2.82084913552095
  H          -0.91768226381945     -1.98019207227970      2.03025715067386
  O           2.93752852805760      0.03633522494912     -1.96153148168374
  O           1.89240241003869     -1.77568658825928     -1.45803072370689
