23
Coordinates from ORCA-job NEB_product E -44.633248389210
  C           1.29087875609826     -0.63161043965941      1.86533069770742
  C           2.63731268612759     -0.67346568741997      2.62254243094086
  C           1.32989784739860     -1.09559379211931      0.41352593075696
  H           1.03916316697660      0.43483623208267      1.79999223916320
  C           3.60700402395528     -1.77226905650430      2.32625577419734
  C           0.19874894383887     -1.25877844921218      2.79621806046156
  C          -1.05195930210319     -1.68817522285448      2.08190751308582
  C          -2.21558180324224     -1.08427201815861      2.22944607126833
  O           2.83490057725601      0.16489968267588      3.46338519190274
  C           0.67731965131638     -2.41641357060156      3.68374319155464
  H          -0.06023287195874     -0.46465503688466      3.50501648205533
  H          -0.96243065525082     -2.58050797419338      1.47990285053434
  H          -2.32662392702340     -0.20104867963152      2.83725203012264
  H          -3.10299894523502     -1.43938838080447      1.73562397067753
  Cl          1.49005040828288     -2.83417377413708      0.15643794737098
  Cl         -0.14377420680568     -0.54571543372482     -0.44570145957509
  Cl          2.69618851568036     -0.27373652845598     -0.41189553224888
  H           4.39332211786821     -1.76282669912421      3.07784671958164
  H           4.05777803425220     -1.61140545887825      1.34977502726591
  H           3.11752375998222     -2.74108138325047      2.30680412720021
  F           1.01820836749673     -3.53554261334976      2.97055857715979
  H          -0.14133914082714     -2.71285004665960      4.34840986296854
  H           1.55094399591603     -2.13832566913452      4.28062229584818
