23
Coordinates from ORCA-job NEB_reactant E -44.635252586870
  C           1.39658030531351     -0.44326326461994      0.24173374082317
  C           2.05891526768492     -1.21139184189272      1.12312934040628
  C           1.98832347283641      0.15456035311255     -0.97104971277351
  H           0.35753546488764     -0.20070147085805      0.38868378650833
  C           3.49848089557924     -1.60255997159406      1.01165530854162
  C          -0.81431110054329     -1.74648603154288      4.80602655295943
  C          -0.19571330960357     -2.27387480103538      3.76395794851795
  C           0.13499562800262     -1.52132798154417      2.51416311062778
  O           1.50647751978936     -1.74351273374605      2.22558591687547
  C          -1.16760969856479     -2.49687416572511      6.04927196041441
  H          -1.12340097590816     -0.71031825151665      4.81823870149846
  H           0.11418098197490     -3.30854850071719      3.77298410370780
  H          -0.05785616888022     -0.44858799046383      2.64177039296568
  H          -0.47982573125721     -1.89763187945884      1.68288140593672
  Cl          2.74623430283087     -1.05587191404441     -2.04880303734530
  Cl          0.73715025445656      0.99043817889450     -1.91542110849726
  Cl          3.25463582618069      1.37705412564244     -0.58072663173561
  H           3.83125114725657     -1.98427774986323      1.97289685469516
  H           4.11165402930121     -0.75610457100355      0.71889818451503
  H           3.61529860269323     -2.38614339316040      0.26589232785016
  F          -0.79409408679927     -3.81322397121684      5.98402529116090
  H          -2.25181419601035     -2.48255529064422      6.21920168548688
  H          -0.66078843122089     -2.06529688300199      6.92180387686046
