19
Coordinates from ORCA-job NEB_reactant E -34.117105162070
  C           2.00394974112827      0.20827755105664     -0.52152543794004
  C           1.37419284155942      0.83057971764413     -1.52934787707468
  C           2.29727739699051      0.75328925020084      0.73502540487524
  H           2.33534816524339     -0.81038698661174     -0.66213782256017
  Br          1.09822373561805     -0.10373136271120     -3.16058714869510
  C           3.33689747624368      3.37443297746639     -1.22767232768744
  C           2.37566874213091      3.41692554846850     -0.31114175447413
  C           0.96706330569014      2.97667989172949     -0.58324985098268
  O           0.85287398656144      2.04235271086542     -1.65112723230871
  O           4.63341740198806      3.70573968360928     -1.09129660300963
  H           3.14975529906357      3.03644280488114     -2.23958327835252
  H           2.55263128029238      3.75407718109177      0.69603401624975
  H           0.34399339439709      3.81721837055901     -0.90910310591689
  H           0.52872011934815      2.55136246662864      0.32759982329420
  N           2.56797542282676      1.13104659456777      1.78569789059827
  C           5.06760801058902      4.13422900627984      0.18136209129283
  H           6.13898361140070      4.30106396201522      0.09066377044957
  H           4.87459486768545      3.36957787652142      0.93937608714522
  H           4.57412520124299      5.06602275573745      0.47271335509692
