31
Coordinates from ORCA-job P E -42.170327472010
  C          -1.30164616845700      0.32559038802103     -2.38527961034314
  C          -0.07678237477388     -1.73516514054156     -1.03739470326632
  C          -1.40872109128524     -1.98829753586031     -1.66978570053121
  C          -1.99803433346389     -1.00083602884057     -2.32426712416881
  C          -0.83584233437623      0.71346094203190     -0.96501864724811
  C          -0.11240803745817     -0.41934590814870     -0.22163604487205
  H          -1.84606093713013     -2.97022033347334     -1.57671544704260
  H          -2.95338064126176     -1.11080881066426     -2.81284273217859
  C          -2.16078593340467      1.41935597899851     -2.95788951377027
  H           0.21522843018692     -2.56516710022739     -0.39469271128190
  H          -0.40402142200390      0.21531542410443     -3.00745760634138
  H           0.67738135047543     -1.63054342779353     -1.82508350389831
  H          -1.70989038730123      1.02621418601628     -0.39220516899738
  H          -0.63514818765740     -0.63054722035481      0.71619691620064
  H          -0.16288368194806      1.57001867573996     -1.04343601361730
  C           1.32312853106786     -0.04291205443172      0.12155167187255
  C          -3.45588924785496      1.61439751009900     -2.49222066227586
  C          -4.24528995291416      2.62718520213859     -3.00535346698634
  C          -3.74869756051843      3.46389457081523     -3.99047734174913
  C          -2.45882882501549      3.28132833339847     -4.45737721564576
  C          -1.67160493174409      2.26575579686078     -3.94348627118743
  H          -3.84950349457118      0.96578015236920     -1.72205397168283
  H          -5.25109376207829      2.76533628387642     -2.63525343848196
  H          -4.36487244671046      4.25519560834428     -4.39155404444446
  H          -2.06421814590716      3.93144049055138     -5.22474647243821
  H          -0.66474338756879      2.12878138012457     -4.31232638089911
  O           1.88045961695803      0.91582090119240     -0.34838544667226
  C           2.02167291043362     -0.98719344764176      1.06977866940129
  H           1.33921597766231     -1.38874589306998      1.81287654373103
  H           2.84630998093263     -0.47299459078005      1.55697321183086
  H           2.43538048768775     -1.81445433285447      0.49476222698431
