31
Coordinates from ORCA-job TS E -42.076946593150
  C          -0.43327447599730     -0.33594431937506     -0.75284766971001
  C           0.97785157261943     -2.60138758600277      0.36836970670293
  C          -0.36294001329897     -2.58162255462406      0.19322013644553
  C          -1.05922929053699     -1.50088271144656     -0.38940761273089
  C           0.18043502383005      0.32951286529073      1.23525899166495
  C           1.00228397616909     -0.59383494548776      1.81493246339845
  H          -0.96165776392349     -3.36100243759359      0.64745371819610
  H          -2.13904754401190     -1.54952168609992     -0.38509283720172
  C          -1.13202614979906      0.83170061929912     -1.28381124471353
  H           1.44174412044535     -3.40002842375230      0.92363683162996
  H           0.61934593623171     -0.37286315829779     -0.99602649026930
  H           1.64306515347513     -1.99034263999213     -0.21196766074603
  H          -0.83069181488180      0.45921651239359      1.58208452744969
  H           0.63447406993910     -1.27073665855675      2.56973658656818
  H           0.63339758377708      1.17282407897048      0.74063211321754
  C           2.44883754288683     -0.52589632790893      1.59655395052327
  C          -2.46759945515384      1.10827324805417     -0.98991508010594
  C          -3.08795020193584      2.22710394044850     -1.51172165962919
  C          -2.38762422622729      3.09630510909147     -2.33209959877312
  C          -1.05675830018185      2.84277638648402     -2.62109937045528
  C          -0.43430178988459      1.72646977267242     -2.09721481152000
  H          -3.02384847845758      0.44988123979044     -0.33925659592370
  H          -4.12313433397611      2.42613775578353     -1.27446196017016
  H          -2.87499248228705      3.97039133409492     -2.73791615263041
  H          -0.50256955712517      3.52067127991787     -3.25370916039782
  H           0.60562534504757      1.53520938776287     -2.32063618301430
  O           2.94843716957049      0.12907000596415      0.70260007342107
  C           3.28593577830965     -1.29930097729165      2.59093432950573
  H           2.94333158770984     -2.32800586433665      2.66302894812059
  H           3.18090472091492     -0.83766284307104      3.57149818752564
  H           4.33197629675258     -1.27651040218134      2.29724352362177
