21
Coordinates from ORCA-job NEB E -52.920410491780
  C          -1.20779917223300      0.62207969116782      2.26285001286948
  C          -0.79388165744205     -0.48266359123968      1.66439407289897
  C          -1.11125727837817      1.98764192059923      1.86162557830494
  H          -1.67302803703681      0.57911561668104      3.24287928980511
  C          -1.00886257110275     -1.82844970750997      2.40302538759843
  C           1.35382446394348     -0.48831744636104     -2.24703455058161
  C           0.39543898428125      0.19470425705596     -1.55629669689296
  C          -0.64098210747013     -0.47726933137967     -0.76553852185958
  O          -0.06195399543099     -0.75733705364391      0.57767679614306
  C           2.45143498022164      0.18530424083834     -2.84326040486679
  H           1.36666002031700     -1.54927357087281     -2.39445767463812
  H           0.43152913410627      1.28574483704917     -1.56213462839913
  H          -0.88756977609231     -1.47318887847799     -1.14645509683650
  H          -1.54267433787536      0.12343753325744     -0.64390527579462
  N          -1.07287224908175      3.13011595486071      1.86144154888453
  F           0.13063215550448     -2.53265346633566      2.40744164422220
  F          -1.41942101736281     -1.80001194968356      3.64438384794115
  F          -1.92276786179753     -2.51446062757872      1.68106821795191
  Br          1.10862703783651      4.25415991488555     -1.34845684458184
  Br          2.26743869808284      1.93300209145240     -3.01608198983349
  Br          3.83748458701017     -0.39168043476468     -4.08316471233518
