21
Coordinates from ORCA-job NEB_reactant E -53.016235440380
  C           1.70537798798105      0.43371687663378     -0.63469879082166
  C           1.50491986871508     -0.83206421085772     -1.03361075151775
  C           1.75596264282210      1.57602050464628     -1.44813738831955
  H           1.83396539803538      0.63441268606749      0.41998534883053
  C           1.45525433297677     -1.95316536378818     -0.00238092245285
  C           3.20992357334661      0.92611691019313     -4.26361145514660
  C           2.83754983298236     -0.22291910316001     -3.72406558714865
  C           1.41288107372871     -0.56692093197997     -3.41150654236314
  O           1.31021871275117     -1.36772919772155     -2.24467521434623
  C           4.59251295590049      1.31746656588770     -4.60860957162403
  H           2.48211508984771      1.69891625170518     -4.48066505528726
  H           3.54916824887283     -1.00392438697958     -3.48891594018752
  H           1.01403301277001     -1.21017168641391     -4.20403965614967
  H           0.78872702832103      0.32833652798615     -3.33025264833297
  N           1.80068355476346      2.54079954428220     -2.06771961975880
  F           0.27801859438869     -2.58565408238477     -0.02562928983765
  F           2.40099302189890     -2.86851678047093     -0.23743293718641
  F           1.63816142357833     -1.51333470803315      1.24601708668144
  Br          5.08053229094265      2.92819638302129     -3.58409570790191
  Br          5.93268422082054     -0.03986995117376     -4.25811606487985
  Br          4.67741713455612      1.76158815254032     -6.52583929224948
