20
Coordinates from ORCA-job NEB E -39.103576599260
  C           1.05969676924264      0.53446168483531     -0.43247663517386
  C           0.26272151971909      1.52261297446053     -1.01541048516595
  C           1.39053977702075     -0.67629678763671     -1.26668884404414
  H           1.89881709386336      0.89175721122801      0.15675825636130
  I           0.37673456898435      3.49951532319090     -0.12637876700277
  C          -0.26560380632689     -0.06037413816346      0.89004325484012
  C          -1.39080363044242     -0.34511652619410      0.11073422924993
  C          -1.97869678414288      0.71779587758774     -0.63003202935426
  O          -0.81430150457400      1.24601337688729     -1.62988038364934
  C           0.28217977520926     -1.13701149659502      1.77866544772767
  H          -0.27461559987088      0.88338265234947      1.43641468612977
  H          -1.55322781878071     -1.35622871815316     -0.23287214184894
  H          -2.19095935452070      1.63400175452415     -0.08112440010911
  H          -2.77635685807538      0.44671468047021     -1.31007376507208
  H           1.88781092371625     -1.43986254943016     -0.67598999900258
  H           2.08381734334247     -0.37398616963551     -2.05135652775715
  H           0.50540119295798     -1.09399628627012     -1.73972452602461
  Br          2.10804908798618     -0.78367969119590      2.37552399865949
  Br         -0.84772798467762     -1.17833010370251      3.41334967637782
  Br          0.23652528936913     -2.93137306855697      1.03051895485869
