20
Coordinates from ORCA-job NEB_reactant E -39.128128878950
  C           1.80374050049982      0.16542199110842      0.05396639066175
  C           1.41659833719646      0.39975059908219      1.29748327835341
  C           1.98656348399723     -1.20304253141556     -0.51271008754721
  H           2.01804527361407      0.99606103455749     -0.59978922669774
  I           1.19463925771927      2.43606763826810      1.96033412921715
  C          -0.59554525281692     -1.58159945535698      5.08126775896492
  C           0.02518047119933     -1.66598529208389      3.91561504818352
  C          -0.02087945945980     -0.59230344465391      2.88096560968819
  O           1.23821604341425     -0.54613875844309      2.23525453987973
  C          -0.62337466086187     -2.62222761422906      6.13036536495878
  H          -1.16785592123802     -0.69927198172050      5.34367054373856
  H           0.61269738500305     -2.53023817197294      3.63810004944012
  H          -0.25720395053158      0.38146792887867      3.33193174936093
  H          -0.80741785892059     -0.83044396945045      2.14605954199717
  H           1.71284833502736     -1.96562252022351      0.21094871257481
  H           3.02820741421896     -1.34681476666144     -0.79686224348472
  H           1.37818778484434     -1.31728346798252     -1.40909964597000
  Br          0.06759484309072     -1.87124848440699      7.81849694748938
  Br         -2.49561949573174     -3.17660558252468      6.44034438608375
  Br          0.40187746973563     -4.21694315076936      5.72605715310753
