18
Coordinates from ORCA-job NEB_product E -38.507628609330
  C           3.15902637746150      1.10759509939933      0.50766078031236
  C           1.99499003660845      1.47086279306431     -0.37981161111111
  C           2.89633902190535     -0.19437209361878      1.09427414382434
  H           4.05635179216106      1.01227493828297     -0.12077506478509
  Br          1.79426609654947      0.21021394323884     -1.86076788539228
  C           3.37717648128878      2.19673283152231      1.58789844661078
  C           2.37434169571041      2.08452102986989      2.70388905298209
  C           1.43900370738270      2.98511647128325      2.93313614179932
  O           1.25393798150502      2.38236438031844     -0.27382691291487
  C           4.80125495777112      2.09642589335920      2.14057316231853
  H           3.28858427321364      3.17565526798865      1.10387268188514
  H           2.46280941817492      1.19429067070368      3.31170243338538
  H           1.33515769000643      3.86757615203510      2.32381830842879
  H           0.73020095066472      2.86711340745955      3.73344408975169
  N           2.67388006836484     -1.21409796943886      1.55342110495053
  F           5.05927967672651      0.86961409914821      2.64120486263568
  F           5.70456690739032      2.29644939289614      1.14742306760232
  H           4.99613286711477      2.83626369248776      2.93126319771640
