18
Coordinates from ORCA-job NEB_reactant E -38.493713691780
  C           1.57654408029911      0.09510748052500     -0.15266121277420
  C           1.51735940565704      1.40487235981262     -0.43454163931676
  C           1.70130987349399     -0.47511908937880      1.12224767801854
  H           1.51817348663668     -0.61611252064966     -0.96368535746418
  Br          1.32834793997248      1.95328602279146     -2.24549659768367
  C           4.00794150218039      3.14116846863490      2.61519571048174
  C           3.26446106016633      2.23982784272372      1.99707983898448
  C           1.80392455041292      2.42699449380655      1.72185907222967
  O           1.54401524421559      2.49647959865235      0.32118282022236
  C           5.47219277934716      2.96618912363453      2.88640828222084
  H           3.60170242955450      4.06639105871396      2.99704089693151
  H           3.70509298766607      1.31879781720881      1.64039181138509
  H           1.45580589783909      3.38762206828058      2.10794808468965
  H           1.22398857118752      1.61650163690248      2.17619993375677
  N           1.79899219126489     -0.99307046197627      2.14245763261402
  F           5.72466559962452      3.06466559230374      4.21665750486111
  F           5.92691070571751      1.75493772326546      2.49660200967407
  H           6.08647169476421      3.73296078474855      2.38151353116896
