22
Coordinates from ORCA-job NEB_product E -51.923674161840
  C           3.15904802178968     -0.19586563649291      1.21782834791437
  C           1.73894274338302      0.27464953722422      0.92942854743092
  N           3.64675981329626     -1.11302924239905      0.22541575876138
  H           3.81163183457918      0.68659861666306      1.25149276393751
  C           1.20817532092249      1.42447469661644      1.83652362233729
  C           3.15283270728040     -0.84524112949376      2.63414038038053
  C           2.13566225602026     -1.95052367415555      2.72040120305537
  C           1.22594533775852     -2.02780086622905      3.67310102222196
  O           1.03960899099847     -0.18755049552818      0.07710244234383
  C           4.52911282309269     -1.38111592331317      3.01960784504121
  H           2.90845745692681     -0.06566718690321      3.36714236500249
  H           2.20824768190725     -2.70984203143721      1.95482040488808
  H           1.14087065438549     -1.28641631087049      4.45031595369851
  H           0.52252085297618     -2.84053759730479      3.70775790541892
  H           2.91598238357230     -1.74693158393547     -0.08112437539296
  H           4.00805125715895     -0.63500820691861     -0.58971050935247
  F           0.38888381055322      2.23248108031605      1.17255190697310
  F           0.53808549542944      0.93401174892030      2.88918072318104
  F           2.20423206750245      2.17570627025147      2.33088685218349
  Br          4.48632227142366     -1.88171594161029      4.91086172152187
  Br          5.07617796668610     -2.94759840663172      2.02960795331789
  Br          5.91694825235719     -0.02297771676809      2.81656716513567
