22
Coordinates from ORCA-job NEB_reactant E -51.935534912150
  C           0.59606549251213      0.20093446678435      0.28879540829940
  C           1.48321740681366      0.01621808874694      1.28284564650153
  N           0.00229241283965     -0.81235855749200     -0.39076394053949
  H           0.35548552042202      1.20313945987435     -0.03125806180752
  C           2.16800601925343      1.17098128835736      1.94961076473344
  C           3.65176071443103     -1.29175822767427      3.88416189767716
  C           4.02673530899125     -1.58519866229865      2.64961329204695
  C           3.06972827869983     -1.74717341290291      1.50834438436738
  O           1.76120370984595     -1.25459843383245      1.76752787806093
  C           4.54117154238143     -1.13794060767912      5.05096438270420
  H           2.60442668201279     -1.13550848339127      4.11483989562779
  H           5.06307790752618     -1.74951495862346      2.38933482089689
  H           2.95198907565280     -2.82071138619204      1.30975655742050
  H           3.48879722235386     -1.27983606338546      0.60931082978155
  H           0.09660416512010     -1.73060376977309      0.01457682682454
  H          -0.85631389395985     -0.62258908747543     -0.87667600583710
  F           1.73189548663142      2.35324761659207      1.49472919736497
  F           1.98921984886176      1.18178278480988      3.28220588403288
  F           3.50945036460727      1.17476286550154      1.76692991558901
  Br          4.39131283866858      0.68368863720899      5.78636113031926
  Br          3.97719787541210     -2.39973750023335      6.45825159571573
  Br          6.41697602092260     -1.47602605692195      4.69133770022000
