19
Coordinates from ORCA-job NEB_product E -36.003869569260
  C           1.65711961729292     -0.66201908819671      2.11329844368955
  C           1.44392895087829      0.65643919005486      1.42109415870713
  C           1.28202166497149     -1.79613069303245      1.16287935533497
  H           2.71500656941345     -0.72797820774690      2.39800914092372
  Br          2.24783805012544      2.16015369516885      2.41226182610936
  C           0.82120217263765     -0.65912524681027      3.42259442213770
  C          -0.65347261897712     -0.65733329174759      3.16117669672682
  C          -1.39863599474080      0.42660694370158      3.26254006038633
  O           0.88098343421759      0.88243268680058      0.41205543307048
  N           1.22752734941278     -1.87412599557256      4.18907477017628
  H           1.12260447099567      0.19890980721201      4.03408372165303
  H          -1.07458096427929     -1.61331030437663      2.88526739210835
  H          -0.98649600635951      1.38211408969263      3.54466658162500
  H          -2.45451520770139      0.40369632794873      3.06036663105266
  H           1.27775710134033     -2.75131313573846      1.68190191362245
  H           2.00013771548329     -1.84869469265088      0.34841348397046
  H           0.29662805455352     -1.62403690530235      0.73724769316295
  O           0.68067619071135     -2.91458138649206      3.92716489375290
  O           2.10676945002435     -1.72270379291238      4.99750338178987
