19
Coordinates from ORCA-job NEB_reactant E -35.982957604510
  C           1.75060453544501      0.03174157339657     -0.01222636693672
  C           1.60177976053160      0.49317120762515      1.22026981949829
  C           1.52862099540646     -1.39268325937449     -0.39423460507627
  H           2.06515604540020      0.70881145456592     -0.79087425931434
  Br          1.91477254536705      2.37661445064071      1.56924411320595
  C          -0.86152769837408     -0.95472461947615      5.06188941114768
  C           0.21776866594006     -0.76079094233484      4.31403584305262
  C           0.30014202134908      0.17906048429841      3.16711940973815
  O           1.33168896778866     -0.25970805664396      2.30087216988341
  N          -0.84066823244757     -1.86685656541284      6.16908137418504
  H          -1.81525328400655     -0.46884266158766      4.92284827268593
  H           1.12479239383819     -1.30919901162453      4.53907318470685
  H           0.54212276946247      1.18556171883738      3.54960586012244
  H          -0.65621313872457      0.24402695106202      2.62992045203968
  H           1.16302849797593     -1.96883244482531      0.45090900755040
  H           2.46338823795196     -1.83147871923677     -0.74068074854393
  H           0.81147852370847     -1.44951633643058     -1.21193187494482
  O           0.19009223044322     -2.45330847854603      6.41256799438694
  O          -1.87607383705560     -1.98694674493302      6.78641094261271
