20
Coordinates from ORCA-job NEB E -50.101046495310
  C           0.42168642906348     -0.77729664577649      0.60059770807841
  C          -0.84153276594335     -1.17523437240429      0.13840336364020
  N           0.40147468318595      0.01385959549790      1.84121998245444
  H           1.19256021316062     -1.54682355335728      0.61767320493189
  N          -0.97915489736279     -2.48341121328307     -0.48010058062747
  C           0.82231871638155      0.60583048058473     -0.65358288960065
  C          -0.25103971658960      1.46991327525822     -0.42611835317995
  C          -1.61531176044386      0.97738170067739     -0.61340356899982
  O          -1.84891390441588     -0.35554151808606     -0.04253915510693
  N           2.15354140507050      1.14494763181495     -0.36677294075735
  H           0.86306499851689     -0.03995186468267     -1.52562078479508
  H          -0.07839349855773      2.41387974025761      0.06786305215807
  H          -1.86941068270083      0.84060237481091     -1.67094713806375
  H          -2.35449080540608      1.62424885649963     -0.14176073685949
  O           1.11975122948900     -0.37620089424349      2.71960797563080
  O          -0.37819180289860      0.93434822245207      1.87822760356164
  O          -1.96221454112753     -2.66472940088362     -1.15653735722419
  O          -0.08775427917652     -3.27821305087219     -0.26918791597787
  O           2.24403140622919      1.91014681925851      0.56061621137236
  O           3.04797957352560      0.76224381647722     -1.07763768063526
