20
Coordinates from ORCA-job NEB_product E -50.123295966470
  C           2.83094976347756      0.72714049765555     -1.01313471080197
  C           1.47446848042264      0.07848698825488     -1.08746073942232
  N           3.02903435357830      1.22350961580008      0.40875966731193
  H           3.61303609030657     -0.02022776440074     -1.20158983188775
  N           1.31963238063566     -0.79791244539990     -2.36826999193034
  C           2.90781279390227      1.86047539575636     -2.05283524696342
  C           1.72062242693860      2.78075406457417     -2.06354245825328
  C           0.94546563537548      2.92794364111962     -3.12138083117630
  O           0.55292050605632      0.15932581122479     -0.35842942278704
  N           4.17997337866042      2.65072734497572     -1.81641286911017
  H           3.03618613540175      1.40640482305092     -3.04536724402004
  H           1.54614405297645      3.33096890340414     -1.15084442498642
  H           1.11759126731277      2.39380462226125     -4.04227094359993
  H           0.10436783026878      3.59724916370570     -3.10749079285431
  O           3.30196677845384      0.37192257937064      1.20167242149423
  O           2.86936246797860      2.39233097201402      0.60820965254672
  O           0.26623387804640     -1.34622894902397     -2.48553209240825
  O           2.26578200760092     -0.82238177638142     -3.11594463001340
  O           5.04814938284665      2.09102081800513     -1.20057387882704
  O           4.21950038976002      3.74088569403306     -2.30396163231091
