20
Coordinates from ORCA-job NEB_reactant E -50.130055450490
  C           2.05094356288932      0.08352967238049     -0.41502251071846
  C           1.41113370078027      0.12883392219562     -1.59516878645885
  N           2.20108223911748      1.12061888519273      0.55274419044092
  H           2.53300423562449     -0.84558581539874     -0.13614179416940
  N           1.36672021932592     -1.18006010913904     -2.35574404200587
  C           3.33808422909931      2.40822152304712     -2.69131912883089
  C           2.24012115418850      3.03065629271409     -2.28245873539497
  C           0.89224450453313      2.43373309016517     -2.08580943443976
  O           0.82066702481631      1.03725116769141     -2.33477205750959
  N           4.57672021281289      3.13000804404321     -2.84163057198758
  H           3.42549719022283      1.36751866424103     -2.96401685348913
  H           2.30259026405934      4.08964451613516     -2.06030473552650
  H           0.19234608236345      2.87259383203893     -2.80469068571798
  H           0.54581176583360      2.66865036802748     -1.06846071052797
  O           3.18940479452998      1.07603462039702      1.24226747596722
  O           1.32372796040767      1.95970232398332      0.63524494443491
  O           0.97901052991310     -1.11112635362207     -3.48533959500362
  O           1.72080300017075     -2.16180692437007     -1.76260033064067
  O           4.58176665348583      4.31223047361918     -2.59030715941575
  O           5.52662067582582      2.48235180665792     -3.21546947900606
