24
Coordinates from ORCA-job NEB E -53.444529448800
  C           0.30621357150636      0.83497050399643     -0.00066419232141
  C          -0.96755196090774      0.83812999058642      0.60799305226528
  C           0.46039264269206      1.55242335262706     -1.32768417376674
  H           1.17704318200003      1.03031943007962      0.61629608143693
  O          -1.13501177440599      0.71177685608520      1.95025628937229
  C           0.34733530281467     -1.10193788128729     -0.36477044908098
  C          -0.81184681062571     -1.34675427645896     -1.10791188685856
  C          -2.05160207620831     -1.07017321834593     -0.48049513359402
  O          -2.00025061666825      0.55453776155643     -0.08970252710150
  C           1.68168524258462     -1.43292149336705     -0.98443439456458
  H           0.35076046146891     -1.40307644808262      0.68023084545114
  H          -0.75291110776674     -1.31366552241329     -2.18446575138616
  H          -2.20610894093442     -1.46483225647979      0.51939542820062
  H          -2.93499469260711     -1.11589455698676     -1.10217277092197
  F           1.74126733445612      1.47485125842166     -1.75646480455896
  F          -0.30745747492293      1.07126623228747     -2.32218850585911
  H           0.22255016361131      2.62682005780481     -1.22493046001475
  C          -0.07471776961236      1.01338578148919      2.83211164635317
  H          -0.51917188264642      1.03203859404781      3.82564408258795
  H           0.36289759503094      1.99032259635067      2.61133143510298
  H           0.70568661065010      0.24802066956729      2.80221043531477
  F           1.76382857228077     -1.18806145615525     -2.28813858395533
  F           2.69953148582363     -0.79278462880453     -0.38380750890032
  F           1.94243294238644     -2.74876134651857     -0.82763815320076
