24
Coordinates from ORCA-job NEB_product E -53.509257621960
  C           3.15358830097917     -1.46407672250899      0.06436277805150
  C           2.18917080802824     -1.11043394900804      1.20232199797034
  C           2.89873699346723     -0.51566036910530     -1.11431659903757
  H           4.16697104492118     -1.22898305500643      0.41672280323422
  O           2.23795489447586     -2.00873166751435      2.17762889965797
  C           3.08876531263209     -2.98061196621766     -0.22988012240444
  C           1.71147341518199     -3.46972441828129     -0.59670116453635
  C           0.99849598013213     -4.24901826578798      0.19297229098703
  O           1.50409711625329     -0.12611087421371      1.22041755569513
  C           4.08713817005432     -3.39988072771424     -1.31082686339676
  H           3.41665028426133     -3.49278683351846      0.68262571610587
  H           1.33455672121990     -3.15270786460513     -1.55706505555663
  H           1.36338579254536     -4.57952773540973      1.15175119822952
  H           0.01777850617674     -4.58668256728302     -0.09178932181055
  F           3.99523545473810     -0.42362988908289     -1.89895173405883
  F           1.88878396644411     -0.91900483560139     -1.91091244223032
  H           2.65391968402059      0.49549711915224     -0.75218218794133
  C           1.38072100703299     -1.77111366734065      3.29187386340769
  H           1.55875704737184     -2.58610335136858      3.98789791735364
  H           0.33923443955579     -1.75986800509070      2.96731654689750
  H           1.61804915025817     -0.81123024565209      3.75303532437362
  F           3.74242561246869     -3.05046974430840     -2.54718453780910
  F           5.31389786483186     -2.90421043434731     -1.08088350713014
  F           4.22181243294901     -4.73822993018590     -1.31773335605200
