21
Coordinates from ORCA-job NEB E -33.196720031180
  C           0.55311599106988     -0.38590943733034     -1.14631066270805
  C          -0.38463792810089      0.50503250998748     -0.63883666240499
  C           0.10887617674419     -1.71880572003041     -1.68554291757061
  H           1.36731288896167      0.07540887836420     -1.69148589562830
  O          -0.05403410623519      1.82314549866105     -0.71113144025205
  C           1.38719014788404     -0.94122750254790      0.67755139794152
  C           0.56760505009389     -0.43971359977724      1.67350734182717
  C          -0.82317036107597     -0.68653961100583      1.52375342560763
  O          -1.32385151899879      0.14523737653748      0.16866749728306
  Cl          3.03223930027334     -0.40003879065862      0.61418527192818
  H           1.30360113289642     -1.98047410177676      0.39433331932868
  H           0.86443159593963      0.48022972955437      2.16032790957014
  H          -1.48312508302548     -0.26613719992394      2.27224598302250
  H          -1.10370490236894     -1.69541061879185      1.23942477096630
  H          -0.68891660907246     -2.14333425654940     -1.08199811624308
  H           0.93903630056712     -2.41930572933537     -1.73992680965488
  H          -0.27202065925438     -1.57963452512374     -2.69793043867028
  C          -0.85099063938303      2.72611743261267      0.03068719833838
  H          -0.45325699076066      3.71554604831142     -0.18240754900631
  H          -0.78881650037596      2.52113402016419      1.10194023826600
  H          -1.89688328577844      2.66467959865853     -0.28105386194101
