23
Coordinates from ORCA-job NEB E -43.828761230480
  C           0.15652910302431     -0.74937925051555     -0.29685682098612
  C          -1.18954725134313     -0.41732876131571     -0.61677633276165
  N           0.34663770280141     -1.77678543316244      0.70475960523383
  H           0.86104464660392     -0.89479254617699     -1.10931657878247
  O          -1.57579547389233     -0.08147638467917     -1.86979451996306
  C           0.69613296313441      0.83718574866393      0.67609009700795
  C          -0.26549918959136      0.90188553195452      1.69122770944774
  C          -1.61370801429571      1.09158250760633      1.31497458100483
  O          -2.04228597539284     -0.19245490098272      0.29306387115829
  C           2.14928624689196      0.64169505766828      1.04263633679956
  H           0.59125546309648      1.52332812054354     -0.16027853156669
  H          -0.05241263487444      0.41841732676151      2.63168611852931
  H          -1.83499676567688      1.88844100811643      0.61185480162578
  H          -2.35874304735011      0.98168496656588      2.09025138773606
  O           1.20757035394028     -2.59518237382102      0.44783914288388
  O          -0.35757846746870     -1.77368831505754      1.68274549124707
  C          -0.73100484048717     -0.31860094464578     -2.97608662490940
  H          -1.34335766083385     -0.12224971074317     -3.85426819401704
  H          -0.38469598255742     -1.35503757261322     -3.00138393760756
  H           0.12743698717146      0.35916927058788     -2.97755010007128
  F           2.29017709007332     -0.13801414210801      2.15508598810183
  H           2.60319426947943      1.61265251473423      1.27856650764378
  H           2.72036047754697      0.15894828261879      0.24153000224534
