23
Coordinates from ORCA-job NEB_product E -43.891053561980
  C           3.02078180365311      1.67741906440948      0.22935796665973
  C           2.61260037976492      2.22482745563214     -1.14690232925203
  N           1.97889016674923      0.69756241865821      0.64097572448004
  H           3.96822058698969      1.13373800892835      0.14464782657375
  O           2.37508216434980      1.21430115222351     -1.97079093425246
  C           3.11432518723240      2.78159209199618      1.29800286583496
  C           3.26275896235454      2.15224716189478      2.65802474643060
  C           2.35119257992090      2.23701601506381      3.60673436803944
  O           2.51720736724837      3.38608625608304     -1.42445719693709
  C           4.30565663381361      3.69790928769467      1.00191833156378
  H           2.20390161950601      3.38692876107294      1.25709006457068
  H           4.18664580817253      1.61204427921625      2.81317377405398
  H           1.42426079778263      2.76613523271544      3.45766344360025
  H           2.49007860366385      1.77268103989300      4.56721565671084
  O           2.33111971917566     -0.43231450152855      0.84809916712442
  O           0.85448940273718      1.11927222730922      0.73736189495841
  C           1.95662237937768      1.54777566214896     -3.29125835668382
  H           1.66484482843234      0.61185722125421     -3.75934074179630
  H           2.77935793644207      2.01103921640361     -3.83832043094947
  H           1.11568542881225      2.24191905577315     -3.25396117709670
  F           5.46474050720730      2.96409453713030      0.92704377478745
  H           4.43860300237293      4.42263960685151      1.81024518415867
  H           4.18653413424100      4.21012874917579      0.04437637742086
