17
Coordinates from ORCA-job NEB E -37.299136339030
  C           0.52253581541724      1.06440291078948      0.61556617661238
  C          -0.61896200685597      0.83205106309656      1.40508348946890
  C           0.34663424260751      1.91153655736144     -0.51926261573551
  H           1.47573629485192      1.20116271103769      1.11998230576176
  Br         -0.27337452054802      0.23633604096307      3.23298997903989
  C           0.62794292099908     -0.69667696291787     -0.21730130296353
  C          -0.64595469786024     -0.88307187496056     -0.75663418659475
  C          -1.74491643905587     -0.94497720583983      0.13220688663186
  O          -1.73938353291051      0.53585418254676      0.91031867665426
  N           1.75056630169712     -0.54228374730483     -1.14542809068477
  H           0.94217032368834     -1.22663683483496      0.67849174778427
  H          -0.80044437201889     -0.57745775690620     -1.78248885164444
  H          -1.64795554837847     -1.58513802277518      1.00553056549757
  H          -2.73426639552482     -0.96280901352559     -0.30519447495422
  N           0.18602729105784      2.60270102406268     -1.41476194162511
  O           1.50348482276594     -0.29935603253698     -2.29736745595569
  O           2.85015950006779     -0.66563703825571     -0.66173090729285
