17
Coordinates from ORCA-job NEB_product E -37.340690032100
  C           2.88439782480301     -1.48072959038152     -0.59294980344797
  C           2.18509832302727     -1.62009289935446      0.73765974779754
  C           2.39569017881773     -0.30108878067107     -1.28337033404196
  H           3.96124855525683     -1.33058721003909     -0.40658968577778
  Br          2.43230370708679     -0.04430457433769      1.85771620680960
  C           2.69462120725750     -2.75317482703246     -1.44300285807426
  C           1.37289204345647     -2.81326888404235     -2.14700064495997
  C           0.43755010400344     -3.69399723525710     -1.84734396364617
  O           1.56016963396509     -2.54274301015175      1.12693504025398
  N           3.81925045245167     -2.84796732223647     -2.44092976823739
  H           2.80839473329699     -3.62582987454944     -0.78580303708309
  H           1.22505777812657     -2.07449250840673     -2.92217300629246
  H           0.57270480339427     -4.43155959132598     -1.07347510975663
  H          -0.50715016672105     -3.70311737808755     -2.36052179975269
  N           2.00440114369339      0.61345943995912     -1.84052852905504
  O           3.56500410875302     -3.36051669910948     -3.49460314025379
  O           4.89386556933099     -2.42988905497598     -2.08831931448190
