17
Coordinates from ORCA-job NEB E -29.558021870280
  C           0.96710876192413      1.00513060424640      0.41534807413445
  C           0.62421942280457      0.21350551823306      1.48463869486792
  O           2.08531724037689      0.69089503838715     -0.33138253024802
  H           0.64955720444314      2.04141259146705      0.38692136595059
  I          -1.08596752451323      1.12362759985082      2.58904539159023
  C          -0.50722053455048      0.01422763277944     -0.99027373105802
  C          -0.87345262883653     -1.14104604010503     -0.29117615628885
  C           0.07390920737435     -2.01617034269826      0.18016005178233
  O           0.83849457979474     -0.97804055154046      1.66490025186962
  N          -1.43879880197824      0.94356909863721     -1.31914366732995
  H           0.36501059347147     -0.01975185502175     -1.62812032552747
  H          -1.86724683634313     -1.16495541040816      0.13863307627618
  H           1.04096739156410     -2.06645196505958     -0.29417232952161
  H          -0.21686944734057     -2.87239257478488      0.76407130199631
  H           2.72999142052149      1.40535858145749     -0.28403484331018
  H          -2.24117996790456      1.02931440216320     -0.71374611894687
  H          -1.14384008080814      1.79176767239629     -1.77166850623666
