17
Coordinates from ORCA-job NEB_product E -29.587323778650
  C           0.91860293837257     -0.23667771892907     -1.78319127474139
  C           1.33350102144728     -1.08049580360921     -0.60103682929292
  O           2.04867946341924      0.20179230052147     -2.47526946782155
  H           0.28683684288791      0.59809033818483     -1.45061188567619
  I          -0.03634109778073     -0.89598663377487      1.08932709374783
  C           0.10273773597270     -1.11663634406427     -2.78190828703780
  C          -0.72222490510587     -2.16315166611640     -2.07916681956854
  C          -0.43060793283368     -3.45030770194171     -2.06565188615798
  O           2.28493739071898     -1.76488908697145     -0.49769147987121
  N          -0.68379321155949     -0.22055951055020     -3.60719911330529
  H           0.85540187825058     -1.59435218154661     -3.41699542199518
  H          -1.62306965780887     -1.79531674771116     -1.60239891015158
  H           0.45744998013008     -3.83436295649334     -2.54040980392305
  H          -1.05831119248253     -4.16981976631311     -1.56823530919041
  H           2.52634292780475      0.86530427212822     -1.96415528836825
  H          -1.50619057130412      0.10128311910468     -3.10700687477273
  H          -0.98585161012878     -0.68511391191780     -4.45399844187378
