17
Coordinates from ORCA-job NEB E -37.779323114280
  C           0.57211623912790      1.12535603971213      0.42765444406887
  C          -0.36198976276755      1.42045087731946      1.59923113483902
  Cl          0.26493098906094      2.29629188747910     -0.89611342173440
  H           1.60360690153104      1.27767574328598      0.77309524481724
  C          -0.27876596387342      0.39495137647634      2.63150085286378
  C           0.40907735020561     -0.31379897112446     -0.09009004674427
  C          -0.97729855585073     -0.57265374351214     -0.61188642649376
  C          -1.29348396439190     -1.40513978046724     -1.58500239730314
  O          -1.07590255495044      2.37490914086333      1.68750329083674
  N           1.50644932540728     -0.51070275466717     -1.10100483306369
  H           0.64980873771442     -1.00338105300109      0.73225864972212
  H          -1.75034370921587     -0.02178155852076     -0.09298333158057
  H          -0.56582693855591     -1.97231904344525     -2.13869631158311
  H          -2.31860197004779     -1.53530737033716     -1.88318218047644
  N          -0.22871870156473     -0.41481978669173      3.43773968941959
  O           2.59932563748027     -0.69155848969141     -0.62223595121141
  O           1.24561694069091     -0.44817251367793     -2.26778840637659
