17
Coordinates from ORCA-job NEB_reactant E -37.792081450720
  C           1.83078811512755     -0.18342940484182     -0.35108564029802
  C           1.41454874772842     -1.31196189780575      0.24406748008529
  Cl          2.05546774649948      0.10768896733453     -2.03321760125765
  H           2.07249042977718      0.66820462293615      0.26535749935073
  C           1.33102426453215     -1.25598930686889      1.66920053485687
  C           2.67781949673087     -2.92286054844845     -3.50742204678632
  C           2.41648760942727     -2.82420318524828     -2.20955377677509
  C           1.04696285989792     -2.78926411605396     -1.61514221532672
  O           1.04079743667013     -2.52333408257995     -0.23068124233210
  N           4.02951682947394     -2.96268462036348     -3.98423449392969
  H           1.94044558068007     -2.96767678222932     -4.29371603214549
  H           3.24771027924290     -2.79142571359758     -1.51372265377435
  H           0.59738450435528     -3.78704136038752     -1.68961603078600
  H           0.40124568588145     -2.08668302849403     -2.15564520942512
  N           1.26482794398982     -1.20547154996268      2.81020166520682
  O           4.92712989675184     -2.89951861788843     -3.17345391664124
  O           4.17535257323370     -3.05554937550053     -5.18313632002192
