23
Coordinates from ORCA-job NEB_product E -45.032438611890
  C           2.70074773346830      0.59803736454890     -1.51768168577290
  C           1.63736954717969     -0.39732645499733     -1.90443735136953
  C           2.43749229829741      1.03366093294706     -0.05973650071950
  H           3.66406922783476      0.07820114338110     -1.54182343582988
  Cl          1.84121698053395     -1.94062602396951     -1.07673120014609
  C           2.69971877389037      1.74750359569571     -2.56257266739907
  C           2.03689876488677      3.01803498483153     -2.10099495134432
  C           0.81685417802122      3.36170357917600     -2.46583754680821
  O           0.73286597112848     -0.24621671282727     -2.65447042398281
  C           4.11339131605101      2.05623528633265     -3.04098160467978
  H           2.16750679344797      1.38729812111458     -3.45152639015500
  H           2.62593119022775      3.65147683786537     -1.45307004831175
  H           0.22239681810829      2.73754756908293     -3.11184119263909
  H           0.36239800446279      4.27468741830913     -2.12309963968140
  C           3.65963879885718      1.64434987921196      0.61387066580401
  H           2.14222349238804      0.14879123515901      0.50636741411328
  H           1.60281804143528      1.73611450148114     -0.04348470309279
  H           4.49250992991679      0.94567100543252      0.59893336287726
  H           3.42441925056422      1.87246001755019      1.65038464731030
  H           3.97658533277685      2.56146680319977      0.12889146737066
  F           4.90431883330972      2.58770443764856     -2.09853992252369
  F           4.74854419645623      0.95784588849850     -3.48450782839457
  F           4.10508452675689      2.92697859032750     -4.05981046462511
