23
Coordinates from ORCA-job NEB_reactant E -45.011968093590
  C           2.37671836612299      0.60995548798083      0.39992052791065
  C           2.70840056127359      1.05987106378142     -0.80261154092570
  C           1.06028812067812      0.88474491152780      1.05817719325852
  H           3.08703394342634      0.01532417765640      0.95051536551669
  Cl          4.28200803451074      0.70761713828085     -1.47657713719410
  C           3.84876604870805      2.27486713507541     -4.58379054914438
  C           2.89218382602414      1.83843152511933     -3.78058303883221
  C           2.38262717807992      2.59617578492641     -2.59269784387487
  O           1.85329764268533      1.75258976811624     -1.59094405579508
  C           4.30674887593058      1.51662979437234     -5.78697539943679
  H           4.37186178707921      3.20677702824997     -4.43271252927525
  H           2.39914153446084      0.89360134173523     -3.96819847619752
  H           1.52866558102961      3.20815193996603     -2.90558274783288
  H           3.15893655978317      3.25538225582170     -2.18652085467903
  C           1.25763750844449      1.50205401211307      2.44128511694887
  H           0.51359864090261     -0.05638716095974      1.16187417577135
  H           0.47310574013258      1.55083025637404      0.42680543714802
  H           1.83584609697749      0.83617762513544      3.07747969331241
  H           0.29562899636002      1.68253282479976      2.91417530501888
  H           1.78750689134190      2.44811661042199      2.36226936066930
  F           3.67698894408514      0.34770005624277     -5.95690635192605
  F           4.11742895119334      2.21945079640607     -6.92122209310605
  F           5.62218017076983      1.24210562685664     -5.73917955733477
