19
Coordinates from ORCA-job NEB E -34.448956614320
  C           0.44278833312216     -0.04219063989597     -0.28868537755673
  C          -0.72412991960970      2.41409618212448     -1.20605452579575
  O           0.23545641341326     -0.95447977446716     -1.18680754037418
  H          -0.09491733683101      0.92876704280804     -0.38493034321223
  Cl          1.07067063830632      2.41484624720039     -1.97864373214080
  C           0.87474806715514     -0.50471530333918      1.06779159604045
  C          -0.40864403301930     -0.80250083095864      1.82633146202249
  C          -0.92042449317531      0.01320355055334      2.72760832257556
  O          -1.29224932566902      3.43510370434618     -1.20818360572250
  C           1.69698875821587     -1.69453789281173      1.01251784520825
  H           1.42704355715727      0.29866878524177      1.56793446273837
  H          -0.89168864810496     -1.72881363863870      1.54979630746013
  H          -0.44595159753282      0.94188142268887      2.99780614852482
  H          -1.83833987458491     -0.22297408197008      3.23725790865116
  C          -0.27135739693675     -0.54393334167630     -2.44109338462617
  H          -0.39411062645706     -1.44264443674713     -3.04025600401291
  H           0.42553614052241      0.15345343029147     -2.91437936808790
  H          -1.22355078822949     -0.02101891453287     -2.31263406004323
  N           2.33213213225788     -2.64221151021680      0.97462388835115
