19
Coordinates from ORCA-job NEB_reactant E -34.571751194670
  C           1.11365106098239     -0.19810918651726      0.34577118695934
  C           1.29702039393623      0.84029224432971      1.16059584841212
  O           0.65876288852244     -1.42885874502706      0.74871718863018
  H           1.30949592331178     -0.07726489997812     -0.71121599027602
  Cl          1.77305756858900      2.34976278238807      0.47458015680864
  C           2.38978689424133     -2.34980596608014      3.19357313230454
  C           2.35707575412744     -1.01942095382327      3.16096800116350
  C           1.10079827284253     -0.21774244536866      3.27576998680642
  O           1.14371741700236      0.96849257916903      2.50144177605492
  C           3.58710714185723     -3.07994285168080      3.07315315800486
  H           1.48867869155253     -2.93897908649047      3.30287602481478
  H           3.26732497336835     -0.44614404723848      3.04013979073536
  H           0.98610063172944      0.14599526399303      4.30388378322999
  H           0.22738222246264     -0.82251584269510      3.00775044423027
  C           1.05331441725994     -2.49569503026660     -0.08630121205637
  H           0.50715482189790     -3.37183813445756      0.25792688233447
  H           2.12954247540414     -2.68303454621199     -0.00850649853144
  H           0.79809368381827     -2.29460840274526     -1.13123318703549
  N           4.55503476709404     -3.68518273129906      2.96450952740993
