23
Coordinates from ORCA-job NEB E -43.009184651470
  C           0.05877358189153     -0.43171439442791     -0.89510154144926
  C          -1.14898048491504     -0.11837118562419     -1.52488690710184
  C           0.03956528879429     -1.60443467504871      0.07323179076177
  H           0.94396043792363     -0.38867690604191     -1.52046661437075
  Cl         -1.05053869628651      0.82946282682012     -3.01584784626594
  C           0.14265082248850      1.24583839576052      0.13353250610860
  C          -1.04730950775102      1.21346183601341      0.86658973376639
  C          -2.26614570336720      1.24753552000510      0.13649156281537
  O          -2.23858968113479     -0.04397672136654     -0.87187483731670
  C           1.44526610078808      1.38745519166617      0.85648834492943
  H           0.14909033907736      1.88550356368356     -0.74960091962973
  H          -1.05091562885363      0.79523273980472      1.86270147058417
  H          -2.36420944257141      2.03979933114726     -0.60195214472933
  H          -3.17368494821713      1.08695861283136      0.70406945130714
  C           1.33253125884475     -2.40850101158537      0.01990820468245
  H          -0.79766549321316     -2.25113093147370     -0.19728459482415
  H          -0.15034112615131     -1.27704909118901      1.09528441889081
  H           1.51245718721978     -2.77743498272102     -0.98680749908145
  H           1.26382264673339     -3.26022756314307      0.69122738418668
  H           2.18800557434222     -1.81087480956599      0.32274726872144
  Br          1.59641638946298      3.28700289068243      1.42364019201903
  Br          1.62850552635156      0.31750678534926      2.46252317102692
  Br          2.98733555854312      1.03663457842351     -0.28461259503102
