23
Coordinates from ORCA-job NEB_reactant E -43.031725451170
  C           1.79286682923676      0.27166230995800      0.01230081136715
  C           1.16710239424351      1.28307795298559     -0.57514332746372
  C           2.00969566447039     -0.05357031891902      1.45944847645301
  H           2.23285836934854     -0.45274096298073     -0.65796295644883
  Cl          1.08440689849400      1.30727798463258     -2.31563165604640
  C           2.71376537680224      3.33691997225777      2.60831067117023
  C           2.20687622201540      3.19873805561341      1.39297991168501
  C           0.75554804290638      2.94372368874641      1.13262181602508
  O           0.49995297162071      2.37967725189025     -0.13277679499997
  C           4.12513801829623      3.62380716444952      2.93829963471307
  H           2.07953367966739      3.26467843019288      3.48440185115346
  H           2.82204553531209      3.27421508236090      0.50628461728126
  H           0.22603521219176      3.90478608333501      1.09758608073879
  H           0.30368765944890      2.34218573294532      1.93247580105815
  C           3.49916950454245     -0.25529377938303      1.73860673668072
  H           1.48289514600889     -0.98716037801119      1.67784642230542
  H           1.61182632887030      0.70885035092010      2.12448878955397
  H           3.88886621056613     -1.07756237642477      1.14454286874125
  H           3.66228212542815     -0.47986019757527      2.78972785575855
  H           4.06144969226517      0.63938294833872      1.48187718136103
  Br          4.25010919060642      5.42155218845076      3.76447651910298
  Br          4.76404808712283      2.31632923804056      4.26665876208252
  Br          5.34014084053536      3.57482357817623      1.42677992772726
