19
Coordinates from ORCA-job NEB E -37.855223257700
  C           0.95607421759084      0.16539262616063     -0.40433530040023
  C           0.27938690637796      1.06658374901269      0.44374452864508
  C           0.57329263927177      0.22535895810434     -1.86014467207319
  H           2.02552264639813      0.05207296512578     -0.26300102387144
  N           0.87090985356946      1.48394674613387      1.61164477985454
  C           0.13253105578724     -1.49037826826244      0.25663522406089
  C          -1.23451753794216     -1.27184182993295      0.08508617161259
  C          -1.79599814895415     -0.17309480338494      0.79478471573563
  O          -1.00573368385001      1.19623795031186      0.34389636073637
  Cl          0.88268614219961     -2.79165941450400     -0.61974981200474
  H           0.54929781680991     -1.41680272212429      1.25617095774171
  H          -1.70224328108976     -1.59591258586716     -0.83142577933671
  H          -1.59530566678115     -0.14235575534025      1.86255370174149
  H          -2.82263664386205      0.07532558383738      0.55712099765909
  F           0.89220510289226      1.45480572488008     -2.36436688051833
  F           1.27670933449568     -0.65059508593236     -2.60616358744706
  H          -0.49919169335581      0.06914869920195     -2.04361229220589
  H           1.87064781313873      1.59333356960296      1.62540241824111
  H           0.34636312730349      2.15043389297684      2.15575949182908
