19
Coordinates from ORCA-job NEB_reactant E -37.879357235200
  C           1.74757499593182      0.01073535941448     -0.01625897029419
  C           1.25680562347212     -0.64497788982054      1.05399715937469
  C           2.01810279694583     -0.67895388578314     -1.30434975631159
  H           1.96909835605159      1.05999461363677      0.03981436833058
  N           0.87333533559109      0.00093703822667      2.21379445018107
  C          -0.25381897290203     -5.05279369415121      1.82816581047560
  C          -0.28300587488398     -3.87571370352008      1.22785451669596
  C           0.18155971929974     -2.60985025785176      1.87939324026869
  O           1.07743886753570     -1.97631579322430      0.98260275721438
  Cl         -0.80920274210675     -6.49124828093457      1.07878104910366
  H           0.09994176772377     -5.20137827749158      2.83759676478315
  H          -0.62475525199391     -3.76687112640711      0.20981723112060
  H           0.68015370481363     -2.83148671231116      2.83362693038594
  H          -0.68042846322108     -1.95491949224442      2.06795283755345
  F           3.01271443849557     -1.61105502228053     -1.20267960288576
  F           0.93559322133879     -1.36996175324623     -1.76355667159799
  H           2.31709587175469      0.02118151765466     -2.09930459032645
  H           1.02985077969009     -0.50401032701996      3.07324889892882
  H           1.15984582646331      0.96548768735402      2.26130357699940
