15
Coordinates from ORCA-job NEB E -31.673416066530
  C           0.49372366419682      0.57749487615769      0.48842913368231
  C           0.98185450804221      1.04662962274910      1.74193832512689
  C          -0.10585942487122      1.41245308369600     -0.52273077747099
  H           0.92949395597074      1.88145193976865     -0.51227875614340
  F           1.08058374878858      2.42901677589779      1.75619513707548
  C           0.57217509988666     -0.88700376549650      0.14043539157910
  C          -0.39690068062835     -1.30981111627411     -0.91328197033118
  C          -1.67357902757348     -0.95099976905922     -0.90802114818579
  O           1.24485229757768      0.43321039670395      2.72536043582873
  F           1.85633580935176     -1.24411682648257     -0.22547200393271
  H           0.37939012755781     -1.40589868592587      1.09571792905353
  H           0.03567959170418     -1.87285229352175     -1.72696176257952
  H          -2.11397490109936     -0.40927392001917     -0.08809683110722
  H          -2.33597858538447     -1.23915894007207     -1.70406174957136
  N          -0.94779618351957      1.53885862187809     -1.34717135302388
