15
Coordinates from ORCA-job NEB_reactant E -31.756779300410
  C           1.85437907315266     -0.21741620746986      0.05845764264021
  C           1.70421856348975     -1.09991288874073      1.05564427169475
  C           1.44198454338681     -0.38144574661351     -1.26857782051681
  H           2.34114113917505      0.71972759309701      0.28562462069878
  F           2.16332615081006     -0.75759658273628      2.26580397577269
  C           2.13154394053215     -4.81630338842787     -0.73048922983017
  C           1.76886806427325     -3.55161664627675     -0.83972535865902
  C           0.65970731654796     -2.96842287040069     -0.01748273648265
  O           1.15445302116105     -2.30156232194359      1.14303391613948
  F           3.13112996908368     -5.32749216881586     -1.45116613547166
  H           1.67703156804770     -5.55461324203583     -0.08409561352561
  H           2.29045944107628     -2.89383801050209     -1.51878552025224
  H           0.02459810313808     -3.75922988400554      0.38773431561205
  H           0.05665156241811     -2.28086371435462     -0.61826130174624
  N           1.12870754370741     -0.47011392077382     -2.36991502607356
