15
Coordinates from ORCA-job NEB_product E -31.764323257020
  C           2.00225709947939     -1.55053552734664     -0.00679781822052
  C           3.00100780914857     -1.30010559049945      1.10436134472616
  C           2.38228535307451     -0.81859443469754     -1.20025714727363
  H           1.02923303133775     -1.16713115468169      0.32953517480913
  F           3.17641110546200      0.03104369611226      1.28694356440307
  C           1.87587218585830     -3.06519968304994     -0.31118899309047
  C           0.74529775866049     -3.32810332646091     -1.26101865327503
  C          -0.41658417748761     -3.82810709221018     -0.88757679479647
  O           3.55642209947426     -2.07653282082418      1.78882851663302
  F           3.05913128516119     -3.49554698833603     -0.86447049310035
  H           1.75762995223062     -3.61324962959727      0.63281103690752
  H           0.95476998436741     -3.06925548416496     -2.28925918351033
  H          -0.62071576362316     -4.09413515882521      0.13703499017644
  H          -1.21141512164622     -3.99195673753042     -1.59328466480098
  N           2.66959739850251     -0.26489006788786     -2.15466087958756
