17
Coordinates from ORCA-job NEB E -34.420596922750
  C           1.06594181695062     -0.09535225889167      0.45484790008360
  C           0.28178145444025     -1.20112628477640      0.78016314408859
  C           0.82100272982969      1.19794496646695      1.20050262836428
  H           2.11811082015767     -0.27410660755712      0.25885426205095
  Cl          0.90930857726742     -2.78053377216061      0.32056609600153
  C           0.27503397343837      0.29688272088635     -1.29938398390124
  C          -1.08434321460552      0.37452781516122     -1.03023873578887
  C          -1.71782527410742     -0.78976045165717     -0.50215211568796
  O          -0.98786017805424     -1.10377265978772      0.90544141674232
  F           0.90653340906847      1.42310717283835     -1.68143269504838
  H           0.70220459274231     -0.56110587410067     -1.81203224196373
  H          -1.50242349314637      1.34661160057753     -0.81821862966860
  H          -1.53435890191506     -1.71942863055062     -1.03612006381530
  H          -2.75391324555812     -0.67589455468058     -0.20835096087948
  F           1.60514457692247      1.21514432211534      2.32751354044295
  H          -0.21827837389101      1.27733264863292      1.53272712186415
  H           1.11394073046047      2.06952984748388      0.60731331711520
