17
Coordinates from ORCA-job NEB_product E -34.460033805240
  C           1.67603592780027      0.36793617025436     -1.65543989211492
  C           1.09605107277072     -0.82514437436182     -0.95642938238129
  C           1.22965994877575      1.63667301499498     -0.91713035001251
  H           2.77033953900839      0.30646754112133     -1.63435845008707
  Cl          1.77387745740361     -2.34685398707544     -1.53668271930275
  C           1.27320576393322      0.36256084041599     -3.15816122763399
  C          -0.13122287407361      0.83833561808956     -3.38514764770826
  C          -1.19106615238267      0.06345839042351     -3.25761878549113
  O           0.27474532328384     -0.82912417445914     -0.10215660594713
  F           2.15208641363758      1.17003462095426     -3.83770667646040
  H           1.42358503808716     -0.64840518143558     -3.56035700887301
  H          -0.21101174142188      1.87947889194133     -3.66279379715086
  H          -1.10967148516674     -0.97611977897508     -2.98491212369197
  H          -2.18595146180698      0.43892527846676     -3.41844453588620
  F           1.84770177512976      2.73673792200921     -1.43639567051659
  H           1.50863181012851      1.57796781108083      0.13993260690026
  H           0.14990364489308      1.78837139655493     -1.00889773364217
