23
Coordinates from ORCA-job NEB E -53.595117888030
  C           0.65108736602044     -0.28339504067065      0.68805366065680
  C          -0.44781138979840     -1.15715162465416      0.76835237268766
  C           0.71918977933709      0.83421441267004      1.70718019695285
  H           1.63323650902251     -0.73490641168498      0.57144077831295
  C          -0.30884514375097     -2.59205777984076      0.31125222434965
  C           0.25932839742408      0.52871078642202     -1.01370335439911
  C          -1.03861533620981      1.02017719675326     -0.84315263995309
  C          -2.07245769222973      0.08479727546867     -0.53140836408831
  O          -1.65014317689674     -0.65840283046769      0.82396700415418
  C           1.35731141869421      1.51151951467434     -1.36177187227296
  H           0.39497549678178     -0.38741618529019     -1.58247153854775
  H          -1.16638658237117      2.04856895579211     -0.54227162491719
  H          -2.16668498021813     -0.76385787054517     -1.20739712486916
  H          -3.03311818224918      0.51441510007441     -0.27437266179869
  F           1.83718164553084      1.55444315065182      1.60392516083402
  F          -0.30391379908851      1.68798418985201      1.70658948333750
  F           0.75028051875812      0.29138883205319      2.94395101945317
  F           0.87422930150928     -2.80235098101527     -0.34667564501093
  H          -1.12231903002265     -2.85569010648541     -0.37614348681410
  H          -0.32881846256906     -3.27417169682077      1.16925079944121
  F           1.23283933224087      2.68281037439283     -0.70631529131321
  F           2.57968204236992      1.01356493012970     -1.06523967136637
  H           1.34977196771523      1.73680580854062     -2.44303942482914
