23
Coordinates from ORCA-job NEB_product E -53.630837247050
  C           2.61442646446254      0.67295002452605     -1.64945479413259
  C           1.50732771957163     -0.38742658561423     -1.46776103700594
  C           2.75481863385656      1.40631321623564     -0.31184356143197
  H           3.58330620599427      0.18648618118034     -1.81047229315946
  C           2.05339915547383     -1.80154554001736     -1.41537657736156
  C           2.27654476515504      1.53317949926177     -2.89368060211878
  C           1.00392408606275      2.32840361514344     -2.77627955236206
  C          -0.06868927726246      2.07768114118106     -3.50152843294998
  O           0.35223388915396     -0.10496945712952     -1.37399466727470
  C           3.42896928861227      2.47191949831079     -3.27945248517132
  H           2.17684259628037      0.82393320386881     -3.72506882697583
  H           1.01864289514490      3.14195203144526     -2.06757704442689
  H          -0.10672260799599      1.26753512501105     -4.21119678896620
  H          -0.96255445552226      2.66579372644635     -3.39865928518534
  F           3.87826016070654      2.11900806515428     -0.22631244580011
  F           1.74510127710191      2.20902912800679      0.00281968806624
  F           2.83627338545321      0.48666588311504      0.67662184341779
  F           1.04938324304852     -2.71878768345237     -1.37038364271898
  H           2.66000802845608     -1.92465213720810     -0.50876313329286
  H           2.65886097388878     -2.01787762141127     -2.30399280948251
  F           3.58795941775136      3.47966316784638     -2.40102542223507
  F           4.60472349836216      1.79579411406382     -3.31834597009055
  H           3.26556065624401      2.91945140403598     -4.27237215934134
