20
Coordinates from ORCA-job NEB E -52.041451654080
  C           0.79651701640800     -0.25166511579917      0.73154704362096
  C          -0.39091513304745      0.29730026761740      1.39969143619004
  Br          2.34564726085424      0.91628814672935      1.01424309038170
  H           1.08415156873849     -1.24570857073248      1.07410791504824
  C          -1.28517122604953     -0.54686078338950      2.14559321189593
  C           0.43924771148600     -0.30479780065139     -0.84391473223613
  C           0.00754419117798      1.02399259681802     -1.25656216327106
  C          -1.08888757172218      1.58642003994715     -0.55082793658770
  O          -0.83948387490221      1.44521855396866      1.00465398948142
  C           1.60358669469267     -0.85334126638209     -1.66756848042707
  H          -0.36525847143232     -1.05280794761673     -0.89775816470766
  H           0.70431287039350      1.65880026855704     -1.78101573955481
  H          -2.02245444087009      1.02028916797886     -0.60984978791677
  H          -1.25188928298432      2.64882404645587     -0.69863659677066
  Br         -0.52029242306259     -1.92755481260346      3.19989992926367
  Br         -2.63401553103409      0.41306813954332      3.07628431721139
  Br         -2.48629944907514     -1.68831399630339      0.50794246327842
  F           2.53912865404176      0.05330419980669     -1.94951390913825
  F           2.21236999676733     -1.87650583405243     -1.05718459146259
  F           1.15216143961993     -1.31594929989173     -2.84113129429908
