20
Coordinates from ORCA-job NEB_product E -52.079751139820
  C           2.07058530241642     -1.39233442194513     -2.18616522140562
  C           0.80925264672060     -2.17404432855579     -1.90669391237538
  Br          1.87673460586895      0.15094764508923     -0.98606159677003
  H           2.98502027346186     -1.90937974970744     -1.88670119862965
  C           0.92750510579319     -3.30014919809360     -0.89354488828746
  C           2.14201503714167     -0.89123825132394     -3.62960436297309
  C           3.23632264775659      0.12749007831948     -3.80843326342228
  C           3.02626735122646      1.34001775688293     -4.28137203453727
  O          -0.23722177814143     -1.94423920443043     -2.43701442569873
  C           2.42124779575480     -2.07095382384830     -4.56291012568725
  H           1.17022104424739     -0.47302922075707     -3.91809754349971
  H           4.22497588705121     -0.20672516212321     -3.52502150515211
  H           2.04519931122208      1.68057171571065     -4.56769952473387
  H           3.83242145082298      2.04223385455961     -4.39516319179107
  Br          1.93402367805837     -2.83665481855383      0.69158235617836
  Br         -0.83235731424127     -3.91106008338495     -0.39396468781654
  Br          1.88320921066618     -4.73135179815296     -1.84762458180934
  F           3.56543204515113     -2.69608420433884     -4.24722197256758
  F           1.45763297316276     -3.00216830007905     -4.52214906161729
  F           2.52481272586009     -1.67724848526737     -5.83263925740411
