19
Coordinates from ORCA-job NEB E -44.126008397150
  C           1.07148806403575      0.63035192208989     -0.26983166363622
  C           0.36130221965166      1.83502962865674     -0.18518487727310
  N           1.05239216552122     -0.03378769120720     -1.57704032386866
  H           2.06776990068059      0.58736472687461      0.16065391760948
  I           1.06929764791452      3.26067545481589      1.26001236916486
  C          -0.07128275997296     -0.54548027113687      0.72369253463372
  C          -1.30049060329761     -0.36709518516367      0.08659853057133
  C          -1.87712666252946      0.94459927844944      0.10138754469402
  O          -0.84072586925137      1.94769477812401     -0.58052105365766
  C           0.57080759511017     -1.92142031018802      0.70242904827863
  H           0.08750499637821     -0.06822267381443      1.68758987317831
  H          -1.59819826012437     -1.05570229300569     -0.68917085352560
  H          -1.97972479449883      1.40893251697337      1.08165542020079
  H          -2.76238853307965      1.07169531412860     -0.51076273684056
  O           2.11110256677256     -0.49384337480387     -1.93326400544459
  O           0.01681441763422     -0.05057979093400     -2.18920144544381
  F           0.12636713207420     -2.62933356448926      1.77011525749966
  F           0.22350351532210     -2.62062691620219     -0.39597035444412
  H           1.67158726165905     -1.90025154916735      0.75681281830354
