19
Coordinates from ORCA-job NEB_reactant E -44.154812516850
  C           2.04309583433288      0.03731781165264      0.12415052821811
  C           1.17468130246907     -0.24701574658580      1.11353578037964
  N           2.68538809068010     -0.95813099912864     -0.65729633377512
  H           2.31037646778690      1.04677042815785     -0.13721842742396
  I           0.34605992768993      1.41097193034388      2.16350009128476
  C          -0.14111482783578     -3.99689763468744      3.61254736190536
  C          -0.21729885282096     -3.26159055280742      2.51757705202901
  C          -0.04752554786418     -1.77628021774280      2.49930106059011
  O           0.83406432653185     -1.46189670180973      1.43505226107789
  C          -0.34051261337721     -5.48299697519860      3.62476423922863
  H           0.04396341766357     -3.57569059888079      4.59020806662224
  H          -0.39939637721540     -3.71252488586043      1.55261535616170
  H           0.35940999614092     -1.41229095753438      3.45102856553754
  H          -1.02283388807091     -1.29807673723839      2.32270453296801
  O           3.44979334430784     -0.54991298402055     -1.50878787838501
  O           2.44771468708876     -2.12803500610492     -0.44031682900318
  F          -1.18952259026567     -5.83507692390340      4.62462205137169
  F          -0.89145191807727     -5.93539170081411      2.47772378831535
  H           0.60180922083556     -6.03525154783695      3.78758873289721
