19
Coordinates from ORCA-job NEB_product E -44.164143178000
  C           1.74579262921696     -1.72573767719385      1.53163671160918
  C           1.20913536362388     -0.33395088978933      1.31899376174321
  N           1.86351845443444     -2.43050190214863      0.20616175799236
  H           2.75876751630953     -1.67950474873996      1.95061168374721
  I           1.43876973525808      0.87474805572607      3.10364376421526
  C           0.81616011553156     -2.51094395428750      2.48617271005137
  C          -0.62278760675171     -2.46318548616499      2.04186497707031
  C          -1.57828349056551     -1.93002079729257      2.77850237439711
  O           0.72751101676436      0.12530085365506      0.35147347728587
  C           1.30059540648784     -3.96563477735010      2.62551373050537
  H           0.90276899968055     -2.06717896076895      3.48564945876546
  H          -0.83158628879953     -2.90155701936843      1.07645512531329
  H          -1.38462366967980     -1.49627293576703      3.74671999262651
  H          -2.59907716849310     -1.91360001219243      2.44124455133451
  O           2.94772819411696     -2.90289529667603     -0.01805158447107
  O           0.89857722136860     -2.46026983937366     -0.49987461144729
  F           0.66155924698432     -4.55108695306893      3.65928489122393
  F           1.01009958798188     -4.69120888358553      1.52616810374793
  H           2.38527473653069     -4.04869877561321      2.80672912428951
