18
Coordinates from ORCA-job NEB_reactant E -26.461314847800
  C           1.79856242654446      0.07348136636087      0.03912370563682
  C           1.16528553067584     -1.10919980303086      0.09977646179963
  C           2.21798674292450      0.72712592789116     -1.22911779776805
  H           2.01721340057519      0.58406199543837      0.96514116730072
  C           0.81671606252191     -1.63211672163207      1.37154571404904
  C           0.11826818549275     -4.91057096439642     -2.50150809047005
  C          -0.07458614032106     -3.64425272815866     -2.18899996599247
  C           0.20211743438256     -3.05988248992825     -0.83916952252721
  O           0.85040466729287     -1.81323630485872     -1.02690420736836
  H          -0.11253968031891     -5.29353524533592     -3.48019363782699
  H           0.50341125038017     -5.61968257025191     -1.78728433698433
  H          -0.45573119983075     -2.93599276744561     -2.91087401046984
  H           0.82786865120550     -3.73606712997346     -0.24097416645567
  H          -0.74818455331420     -2.90838927695044     -0.30111445938726
  H           1.95531574542909      0.10625277184922     -2.08053987957251
  H           3.29476170485079      0.89636169380647     -1.22519309083040
  H           1.73378161762727      1.69874083679873     -1.32849493697463
  N           0.53944815388202     -2.04249859018248      2.40688105384155
