20
Coordinates from ORCA-job NEB E -32.712684130040
  C          -0.20489412820818      0.47096496403531     -0.61332941032553
  C           0.24744134227744      0.79745189716727      0.68298518094092
  O           0.64184904255599     -0.26255894327509     -1.44339152117703
  H          -0.76177676650753      1.24976222151447     -1.14121590264005
  N          -0.36630461621468      1.81104798782571      1.37619692283225
  C          -1.42718929694624     -0.98967188741334     -0.20106866879077
  C          -1.10302189588695     -1.50415706528576      1.05456220226398
  C           0.29953481958988     -1.61078325430195      1.29349177982113
  O           0.86883816613670     -0.09123628342480      1.39380054671271
  I          -3.42587018544939     -0.29736049559422     -0.47809628382217
  H          -1.10138724206745     -1.52178895727058     -1.08419536770711
  H          -1.72234994742195     -1.23959785861861      1.90174913502081
  H           0.88158296036456     -2.01349760672500      0.46816563623993
  H           0.60681417812935     -2.00090739806227      2.25644697824563
  C           1.64620298234913      0.52077648347637     -2.04739602599648
  H           2.20009805173939     -0.14723629862711     -2.70394757529969
  H           2.32371822249740      0.94681143985977     -1.29892263331648
  H           1.20896381045754      1.33520364353306     -2.63769670267409
  H          -0.09584866096386      1.93348445110527      2.33734737636436
  H          -0.71640083643117      2.61329296008152      0.88451433330768
