20
Coordinates from ORCA-job NEB_reactant E -32.740451572550
  C           1.06996847438843     -0.21696247350552      0.01625316257510
  C           1.23205695255479     -0.68325947338106      1.25750051005341
  O           0.95417584081705     -1.05360708631267     -1.06830108618918
  H           0.97352224714226      0.84548040955209     -0.17152797724519
  N           1.15972729518727      0.12911147977140      2.40062269461660
  C          -0.47343207322371     -3.85153776385251     -0.33385935413768
  C          -0.60006459552343     -2.86988787523106      0.53411731576865
  C           0.25352514117730     -2.77987403606169      1.76694196447587
  O           1.43281924412429     -2.01688256595100      1.53342741110463
  I          -1.56077763685685     -3.93127403673495     -2.12784823113876
  H           0.19746791011374     -4.68322927948842     -0.20584687536194
  H          -1.27056317764801     -2.04319486962921      0.35394116506774
  H           0.62139923433400     -3.76581005226153      2.06155055741077
  H          -0.32151835323202     -2.33668833054461      2.59091699704804
  C           1.25223371052818     -0.45923035248455     -2.30604909875718
  H           1.01135157077240     -1.19982885818433     -3.06659378471302
  H           2.31305478531591     -0.19391864172822     -2.37897539988018
  H           0.64829723606839      0.44065131095068     -2.47156400189841
  H           1.73300930316359     -0.23057342025806      3.15268141048558
  H           1.34904689079641      1.10361591533523      2.21721262071516
