26
Coordinates from ORCA-job P E -36.852490635490
  C          -1.17684476602965     -0.22082912519929     -2.80497456026109
  C          -0.65402272837041     -1.38262082514057     -0.39454155020122
  C          -2.03424729565547     -1.49972109614388     -0.95408558441729
  C          -2.29288206181976     -0.94695336209227     -2.12924775355318
  C          -0.51071187948095      0.74680275844885     -1.82243348663696
  C          -0.14628457047221      0.07588827509292     -0.47869018660986
  H          -2.78461771145708     -2.03382293346717     -0.39327774059024
  H          -3.25803742625323     -0.98087448993538     -2.60632752955101
  Cl         -1.76422916568011      0.69331645799274     -4.22754177209021
  H          -0.61491257483812     -1.71691956445858      0.64235400501543
  H          -0.44183750184502     -0.93287199454165     -3.19611441102419
  H           0.02078142975029     -2.02075496502951     -0.97352326014819
  H          -1.21147848034715      1.56282614438505     -1.63883813771812
  H          -0.64236237334203      0.63315175338856      0.32141674983754
  H           0.37950532897225      1.17661457561575     -2.28389686342760
  C           1.33879394127255      0.10093318717753     -0.21780459456606
  C           1.83710195694785      0.60724069060025      0.97491470075089
  C           3.19786726259010      0.61520126920658      1.22847980073208
  C           4.08156187381597      0.11386058163620      0.28941465433324
  C           3.59584316000783     -0.39550848672596     -0.90305691001247
  C           2.23595562651051     -0.40260265528734     -1.15300069966710
  H           1.15319604748880      1.00182384533019      1.71324402097908
  H           3.56792592869851      1.01498877191358      2.16124832575592
  H           5.14367256434353      0.11999752473318      0.48435962808853
  H           4.27959973932532     -0.78885347007028     -1.64121898893054
  H           1.87006367586768     -0.80229286742951     -2.08788785608739
