26
Coordinates from ORCA-job TS E -36.752673013910
  C          -2.11275652164619      0.81594064114143     -1.65915378798509
  C          -0.67152717260617     -1.55379392430559     -0.97857693353968
  C          -1.99306196238506     -1.56630395932034     -1.26970255843450
  C          -2.70644402092013     -0.41156083621973     -1.65834098172414
  C          -1.61222339474345      0.99367762334450      0.47952246240548
  C          -0.75512283594721     -0.00332908248702      0.84795810461101
  H          -2.57747379081722     -2.44873259904472     -1.04739313635981
  H          -3.78249637077454     -0.47468396414695     -1.72944507410934
  Cl         -3.05004614540015      2.22686548148465     -2.00695440614775
  H          -0.19247408368269     -2.42768729206007     -0.56939362989375
  H          -1.06570030869070      0.95603441666222     -1.86896440561019
  H          -0.00731648932888     -0.80821951741355     -1.37258065551095
  H          -2.64820092931747      0.93245251027168      0.76534587644280
  H          -1.15272845019902     -0.85866879557516      1.37509284746610
  H          -1.24561892074738      1.98528483328804      0.27875368541889
  C           0.69724029969924      0.12803282917433      0.87569082848063
  C           1.37830488119159      1.13407418472492      0.18762276697792
  C           2.75512786396350      1.22736293267590      0.25000125728329
  C           3.48566738918840      0.32153571925630      1.00130777609512
  C           2.82546486515479     -0.68344979078816      1.68896460907566
  C           1.44963064278245     -0.78118181722173      1.62223730670894
  H           0.82922463415876      1.84940042606988     -0.40647347360513
  H           3.26364083565802      2.01214876818584     -0.29150195997964
  H           4.56172269179099      0.39796472026224      1.04925626268378
  H           3.38736953585436     -1.39476105506068      2.27692509255051
  H           0.93979775776414     -1.56840245289825      2.15980212669982
