21
Coordinates from ORCA-job NEB E -44.086979660930
  C          -0.50912412933440      0.39548336150008     -1.04238100839311
  C           0.54493823844420     -0.37954608576586     -0.51626075649889
  C          -0.22812909114445      1.79045729444664     -1.45151627117417
  H          -1.17987639481840     -0.13870413716566     -1.70359471188854
  O           1.68465553377193      0.26669072649329     -0.23329456484608
  C          -1.90135278014055      0.32355294686107      0.52161459572775
  C          -1.34941241659934     -0.56076230174420      1.43432081150610
  C          -0.99982960684037     -1.83508953922622      0.97117158668046
  O           0.36363990508421     -1.57223758610104     -0.12442783737445
  F          -2.05730568036319      1.59827946241122      0.89492887208244
  H          -2.70122249007202      0.02539253571688     -0.14771470583145
  H          -0.80261443952278     -0.13205761559961      2.26366817183567
  H          -1.65377182611586     -2.31108111216784      0.25222076999441
  H          -0.52301746533248     -2.52112415176716      1.65539072633552
  Br         -1.83925550534582      2.64627574924607     -2.13833307474081
  Br          0.49276619037686      2.90315369002152     -0.03605867469071
  Br          1.11489065392037      1.82452188009014     -2.93099297437314
  C           2.69207550989548     -0.45411212649444      0.45491632590812
  H           2.97588727527618     -1.34429053828623     -0.10990693999037
  H           2.34230758403905     -0.75284834460434      1.44504780726681
  H           3.53375093482138      0.22804589213569      0.54120185246445
