21
Coordinates from ORCA-job NEB_product E -44.144100400810
  C           1.19176779690281     -0.98590874166103      0.94476205413741
  C           2.47380402567906     -1.42763139536653      1.67091253731309
  C           1.38033693836976      0.21790927967617      0.04614271407258
  H           0.87091556709340     -1.83402619752769      0.32603757318574
  O           3.37179522002462     -0.46109175705971      1.70655662584003
  C           0.11041571579178     -0.76618003236959      2.03300057007670
  C          -0.47940847608494     -2.07470780749257      2.46500050785074
  C          -1.70417272150693     -2.44805388110386      2.14947107878145
  O           2.59022008276917     -2.52309988310057      2.14236556561118
  F           0.69562361329359     -0.13792602080584      3.11344121567047
  H          -0.67175477509240     -0.08456819694968      1.67149690803078
  H           0.18615513547920     -2.69806979247109      3.04349232022990
  H          -2.36157784229069     -1.82121457629443      1.56854237022634
  H          -2.09700115532625     -3.40009240936175      2.45902325651644
  Br         -0.24938733076325      0.48551947591965     -1.01422421494718
  Br          1.73518792699821      1.86468371301615      0.99612836704877
  Br          2.82684868057010     -0.10103310325358     -1.22143861743941
  C           4.59899758875894     -0.69487902674078      2.39048212950703
  H           5.41031627777086     -0.54405343181826      1.67896834646687
  H           4.61794485113021     -1.71200153701317      2.78301119535665
  H           4.67057288043277      0.02912532177817      3.20142749646442
