22
Coordinates from ORCA-job R E -28.499326995890
  C          -0.96560828460438     -0.35839786750267     -2.85762326489335
  C          -0.61740784291596     -3.33416207390894     -2.34828464357098
  C          -1.57999446576270     -2.54806870970467     -1.86686053758804
  C          -1.75367839739203     -1.13369938484647     -2.09600856911536
  C          -1.02664393909104      1.92384739342556      0.14272746953853
  C          -0.32140307476690      0.80355580415963      0.14506327310711
  H          -2.32298194051240     -2.99163050877794     -1.21416873884848
  H          -2.59527077482754     -0.67044440545266     -1.59644415967717
  N          -1.19458904349225      0.97171417576758     -3.10990527056165
  H          -0.57626237291400     -4.38174236517916     -2.10525280964856
  H          -0.11687689436999     -0.77050984099512     -3.38411223800531
  H           0.15443212771487     -2.97115322951507     -3.00511490495187
  H          -1.94381865437294      1.99612848213199      0.69461560941847
  H          -0.64602349464049     -0.07495194138416      0.69224276393801
  H          -0.69378954451814      2.79372983752194     -0.39450749127981
  O           0.84247853037430      0.67723261118966     -0.54193707156141
  H          -1.83471277247876      1.42011656930186     -2.46988210325412
  H          -0.37927196432871      1.52726433588516     -3.31463857568901
  C           1.49261319036267     -0.56652031854169     -0.41549136070856
  H           1.80547384828601     -0.74582976907377      0.61868650727225
  H           2.37398289281508     -0.51722822622786     -1.05228917905181
  H           0.84755287143529     -1.38663056827319     -0.74565470486890
