22
Coordinates from ORCA-job TS E -28.478570797780
  C          -0.96395994526920      0.75235999824557     -1.48278234546504
  C           0.16068285908791     -1.59049253121379     -0.27310013181332
  C          -1.16674207933520     -1.48229575555247     -0.56526538663433
  C          -1.72330894108655     -0.35381033501335     -1.17668635488256
  C          -0.32310199782791      1.20826878559775      0.59668002111028
  C           0.45262782061001      0.20401264556622      1.10733597065148
  H          -1.85242325731835     -2.21264201502248     -0.15501040411121
  H          -2.80079754862535     -0.26376442534821     -1.21330476199334
  N          -1.53657957613351      1.88685927742314     -2.02568563958577
  H           0.50425296302626     -2.45528429023155      0.27407679179806
  H           0.08270189712458      0.64579766103971     -1.71878579959152
  H           0.90824844423819     -1.08962441614255     -0.86085731345377
  H          -1.33292450081148      1.31674403155145      0.94352192796666
  H           0.08962454635952     -0.46570253151213      1.87446771023325
  H           0.16801754340614      2.08067942117776      0.20620820951667
  O           1.81707962762202      0.32672766225306      1.00033567438895
  H          -2.48671500615458      2.06630934509444     -1.73573462112372
  H          -0.96114639263032      2.71406339188083     -2.02616301563374
  C           2.57916223546934     -0.63842116888508      1.67684072500675
  H           3.61981306755490     -0.33290419596177      1.57895736846108
  H           2.45154801802133     -1.63215481066994      1.23572827682355
  H           2.31394022267226     -0.68472574427660      2.73922309833160
