18
Coordinates from ORCA-job NEB_product E -34.303843834930
  C           0.58398682281966     -0.97093560661437     -1.66661399792019
  C           1.30578891102580     -1.05243198971215     -0.34329743012914
  O           1.47287077906531     -0.55129552035241     -2.66101214144386
  H          -0.23677860547681     -0.24832169687250     -1.62704862497919
  Cl          0.26961198894753     -0.89849501775252      1.05044920810616
  C           0.00291643032207     -2.37994091627756     -2.00460845642623
  C          -0.90289187476543     -2.90558375643846     -0.93292512712631
  C          -0.68413380517405     -4.02491065299666     -0.26944175032991
  O           2.47605305519134     -1.23337110349422     -0.22699635576488
  C          -0.75457205940831     -2.26629573106436     -3.33251589612028
  H           0.84481097066864     -3.06309899919771     -2.15946195700735
  H          -1.79054431470375     -2.31576678110151     -0.75329287645592
  H           0.19318673965327     -4.62765381377593     -0.44074126063422
  H          -1.36956951399748     -4.38144759400684      0.47912478838041
  H           2.35453234697617     -0.89169582227052     -2.45199305394622
  F          -1.87070606523613     -1.48486800537457     -3.18233495957158
  H          -1.09703711688805     -3.24951605956841     -3.66888425307666
  H          -0.13072468901978     -1.78847093312931     -4.09380585555461
