20
Coordinates from ORCA-job NEB E -25.075032823330
  C          -0.47865136029892      0.76841897749376     -1.27739108060045
  C          -1.80467332541327      0.36423860546731     -1.36790963869700
  H           0.27349088845829      0.12072814567761     -1.70057923868049
  H          -0.26951096993114      1.82299692237080     -1.39386680567359
  H          -2.59867093751956      1.10246687578423     -1.21631990170358
  C          -0.12282047696665      0.35665025006086      0.56403690743650
  C          -0.46247258249595     -0.99666986696282      0.61960463645934
  C          -1.81433401898423     -1.35324958144516      0.34296011595392
  O          -2.10912521627584     -0.88883712386841     -1.17958668986276
  C           1.29097999215269      0.83206816525505      0.82849184801092
  H          -0.85084905105166      1.04008935317733      0.99542457169656
  H           0.29440270052523     -1.73093906519933      0.38838484299438
  H          -2.57582594653529     -0.79590292214205      0.88459290484739
  H          -2.03596194919778     -2.41307503343230      0.30330640627210
  C           2.39908095464142     -0.08164361694317      0.31880137629652
  H           1.39659418276767      0.94210520577752      1.91251376496943
  H           1.41644702071494      1.82674079906594      0.39487699174726
  H           2.39465585236732     -1.03129324918606      0.84684222146440
  H           3.36576183997343      0.38981790399163      0.48136730158063
  H           2.29148240306928     -0.27471074494273     -0.74555053451149
