20
Coordinates from ORCA-job NEB_reactant E -25.111884534110
  C           1.81374179890432      0.46024663203329      0.14811536811481
  C           1.04334035964065      0.79039818838908      1.17312929863587
  H           2.67366308445081     -0.18013253932180      0.22784718709021
  H           1.58824246493224      0.83772193244718     -0.83124331036872
  H           0.18831762533053      1.44301853786658      1.04847593834931
  C           4.25756016893926      0.20233337214156      4.09227402091611
  C           3.48614180971024      0.28283176711166      3.02169138247440
  C           2.18069830594346     -0.44081155253527      2.86656432003232
  O           1.12428264534798      0.41700996568140      2.46972616683433
  C           5.56890819009908      0.90214813845790      4.25123087675053
  H           3.96462551579343     -0.42794042271032      4.92283000473646
  H           3.76554516707067      0.91476675137691      2.18970782990498
  H           1.86375476719595     -0.86111779449523      3.82485140876112
  H           2.28355231758846     -1.26166922767514      2.14133687088792
  C           6.70851430033304     -0.09930680795857      4.43850069789803
  H           5.52022409268529      1.55217696235463      5.12956146613530
  H           5.76525339668739      1.52618995612015      3.37771379689778
  H           6.53264444056956     -0.71799848013484      5.31570930500981
  H           7.65447160746479      0.42121926916954      4.56743895802306
  H           6.78641794131284     -0.74948464831872      3.57003841291638
