20
Coordinates from ORCA-job NEB_product E -25.119188073620
  C           3.35621021058696      1.06283679752658      1.81460100572819
  C           1.93843585732491      1.10594000705267      1.32454259931631
  H           3.94514587951018      0.48917887210993      1.09508736847628
  H           3.73068353330961      2.09149295296429      1.78938684527032
  H           1.85758097450524      1.41257591634612      0.25994864723008
  C           3.47807807192627      0.48122357363317      3.22671819590465
  C           3.26417755077391     -1.00397237208017      3.19478729003012
  C           2.43983783496666     -1.65027143160510      3.99597600150708
  O           0.95870034283527      0.86390240604040      1.96881482828368
  C           4.82576189135967      0.83881194717930      3.87817262738215
  H           2.68745553616103      0.92673847189027      3.83967932053538
  H           3.84183647847741     -1.54641600771608      2.45718318226949
  H           1.84363941205224     -1.13361093286655      4.72950080024413
  H           2.31688997599776     -2.71904330951786      3.94837695730597
  C           6.04833858483499      0.30163813140694      3.14238569971887
  H           4.82374759799049      0.44219199310299      4.89575348587413
  H           4.90014334298181      1.92721649320169      3.94806901379894
  H           6.02371839930161     -0.78349962150324      3.09125099200641
  H           6.95308011764357      0.59346166902108      3.67131623425339
  H           6.10753840746041      0.69860444381356      2.13194890486444
