18
Coordinates from ORCA-job NEB_reactant E -33.821670329640
  C           1.74857512354138      0.02628134647408     -0.10738872430519
  C           0.80894675059251     -0.86265639229743     -0.40796891035557
  C           2.42189112227257      0.86282903887053     -1.14663368436702
  H           2.06474633529119      0.16911078007194      0.91242724121004
  Br          0.02263714267203     -1.88963234138427      1.02253153414514
  C           0.27475977692679     -2.88772491581307     -4.41943409683339
  C          -0.44615448649033     -2.27037552183170     -3.49196859957901
  C          -0.12538514978856     -2.33037772759607     -2.03739033182308
  O           0.29487366540875     -1.02213147763115     -1.62516036463182
  O           0.04217254498603     -2.87104183407978     -5.74391178376573
  H           1.13163408090314     -3.50111773768659     -4.17834447704622
  H          -1.29172816537672     -1.65442272455668     -3.76451138876938
  H           0.67518256934614     -3.05404550156951     -1.84741058915097
  H          -1.01326299527081     -2.61502946363123     -1.45692727874448
  F           3.78181727754638      0.87052345922168     -0.94319796582790
  H           2.09715476811115      1.90927231579941     -1.08608573569109
  H           2.24210054567576      0.47201550448635     -2.15260679436548
  H          -0.72266090634742     -2.31517680684650     -5.94381805009885
