18
Coordinates from ORCA-job NEB_product E -33.833590327430
  C           1.70514201367900     -0.95445608896005     -1.61986063882698
  C           1.01519060021070     -1.15019788734269     -0.31738642442916
  C           1.47185226292003      0.48941054413091     -2.07712669478946
  H           2.77672730941971     -1.15456552963048     -1.51491098055365
  Br          1.61815790930823     -2.76849819528194      0.61230962779300
  C           1.17511228868644     -2.00832658879578     -2.66928600436187
  C          -0.22631300253964     -1.65939209099217     -3.09260749801500
  C          -1.30818156249879     -2.11747829770494     -2.49259744742151
  O           0.17217761000020     -0.48728380686844      0.18107698303315
  O           2.06108560082054     -2.12406062198383     -3.73659683546088
  H           1.18755927698255     -2.99195037804298     -2.18530317096789
  H          -0.29767851638668     -0.99748386660760     -3.94589089439539
  H          -1.25323990307560     -2.78855860093578     -1.65097303026314
  H          -2.29623517626179     -1.84307139785919     -2.81826035363302
  F           1.97333744815378      0.68294433026278     -3.33897635082537
  H           1.98428236752119      1.19705513606669     -1.41836695852698
  H           0.40337246645506      0.72160333966958     -2.11397281328592
  H           2.07125100660507     -1.30128999912407     -4.24367051506992
