18
Coordinates from ORCA-job NEB_product E -33.550979162270
  C           0.52386561692854     -1.03688901887286     -0.81635679578300
  C           1.34157118283664     -0.93703350009790      0.45735116772160
  O           1.35816439826205     -1.01020763432283     -1.93504898354163
  H          -0.23035527761489     -0.23539730578538     -0.85260308936150
  I           0.35505658187005      0.21709519874061      2.01026900367994
  C          -0.20080301431788     -2.40771071907414     -0.81897202265501
  C          -0.74363446918671     -2.78904908289560      0.52537467397718
  C          -0.17291781050605     -3.67653927468019      1.31763632666717
  O           2.40587607118529     -1.39835634661816      0.65781024434214
  F          -1.23604492356720     -2.31963041895876     -1.72106847613624
  H           0.50076321906173     -3.15347304321123     -1.21082447787895
  H          -1.66063968072947     -2.28659846348179      0.80077014468390
  H           0.73569103602447     -4.18587383678318      1.04061730448191
  H          -0.58616044385168     -3.91707356341049      2.28138549446381
  C           1.87441760754825      0.26598695746372     -2.24614361545598
  H           2.43062152287649      0.14445805102529     -3.17239015549080
  H           2.54797637975662      0.63019472216577     -1.46300870750376
  H           1.06675200342372      0.99149727879711     -2.39419803621079
