17
Coordinates from ORCA-job NEB E -40.242242700660
  C           0.99805029295126      0.43995964541286      0.65878192336950
  C          -0.45053640173280      0.60246264907256      0.78303556321485
  Cl          1.79426959605236      1.98920082624694      0.26724897746239
  H           1.48941437355368      0.02548594479865      1.53931073891447
  C          -1.19815708639742     -0.11109587287230      1.79237528087665
  C           1.22832994490025     -0.56598253824051     -0.59764006678221
  C           0.54188537918367     -0.00188751192497     -1.73699299006102
  C          -0.85159241256565      0.24391750489868     -1.59215041432890
  O          -1.10449850339930      1.04093896411735     -0.24828166332703
  Br          3.13249596104286     -0.82163726199866     -0.86447515920083
  H           0.82561467019813     -1.52298069599140     -0.25167853188565
  H           1.11254521507412      0.52895688703830     -2.48233140929960
  H          -1.46137678393510     -0.63684713780970     -1.37609951254123
  H          -1.30107048164487      0.86689023273370     -2.35855159437873
  Br         -0.40080696480801     -0.25286694658785      3.51446390159861
  Br         -3.01798735507678      0.44110953542111      1.89666613178004
  Br         -1.33657944339641     -2.26562422431476      1.05631882458869
