17
Coordinates from ORCA-job NEB_product E -40.278684307810
  C           2.16689456216967     -2.00134816405213     -0.84068532411391
  C           0.86954264580511     -2.61773960223312     -0.37235140022080
  Cl          1.77448992567243     -0.23996494943786     -0.83752480965723
  H           2.99908671342281     -2.15725880365930     -0.15018263633946
  C           0.76655737899666     -2.91057590242295      1.11353841307117
  C           2.51788587386436     -2.41898825570266     -2.25733044380720
  C           3.68593493708144     -1.67799034090563     -2.80483184182656
  C           3.67114024116724     -1.07417756586828     -3.97866652575551
  O          -0.04065957925900     -2.87853098828161     -1.10219092566609
  Br          2.94735131704170     -4.35514234670947     -2.18156321027479
  H           1.64091675487209     -2.34095960805609     -2.90353373531249
  H           4.56983476126116     -1.67971065054798     -2.18181167929586
  H           2.79820512779235     -1.07744220415259     -4.61058854335528
  H           4.53273302721120     -0.54912621697201     -4.35111790733985
  Br          1.44829087860739     -1.50669520923336      2.25228257971706
  Br         -1.06310512398904     -3.29913867504616      1.57769428913504
  Br          1.86480055828241     -4.51731051671879      1.35936370104176
