17
Coordinates from ORCA-job NEB_reactant E -40.271131798770
  C           1.61135359012886     -0.16469396547748     -0.10553160169649
  C           1.72806752158437     -1.49243675019804     -0.09301492707370
  Cl          2.06709178042286      0.90983457944963     -1.37335361011017
  H           1.19373916278772      0.35880894486739      0.73868931842796
  C           1.27641078411402     -2.32240370591796      1.07281046919120
  C           2.69955006817813     -3.53777337835051     -4.17339554435571
  C           3.14406330678328     -3.19122952180214     -2.97882873474274
  C           2.69271932899366     -1.95191794886220     -2.27154616789016
  O           2.20167946787095     -2.36898703594878     -1.00440539661145
  Br          3.29384344204711     -5.08349481043358     -5.07015156592597
  H           1.98574498325727     -2.96203572998479     -4.74204157437696
  H           3.85068754261869     -3.80501913400758     -2.43953137200313
  H           1.90597645112764     -1.44174546609924     -2.83622845908306
  H           3.54483428976007     -1.27506629207997     -2.13352411130290
  Br          0.65020741024274     -1.35350987223629      2.61018010130447
  Br         -0.16776311804016     -3.49355896095276      0.45691652504777
  Br          2.76469398812280     -3.45167095196568      1.63525665120105
