17
Coordinates from ORCA-job NEB_reactant E -38.481741244850
  C           2.54912372916803      1.08014274769067     -0.21931455477893
  C           1.47306777844244      1.81847387942256      0.06010848158984
  Cl          3.75667183788582      0.52038751052085      0.87135717295350
  H           2.74062988193338      0.77669886405502     -1.23509884889411
  C           0.56202371552825      2.21458247016937     -1.09179526411037
  C           3.24981621210254      4.00066079178913      1.54860703476817
  C           2.98056571865244      3.04906256682158      2.42609327104731
  C           1.71280124809835      2.24453686424470      2.41427817261268
  O           0.98528447553847      2.33388481172230      1.20482674942510
  Cl          4.71105339332207      4.89927886068636      1.58279782947110
  H           2.58438890923380      4.28654278306775      0.74818848025976
  H           3.67341300324697      2.80470305572599      3.21672740651424
  H           1.02032582340576      2.63845708728737      3.16715206328199
  H           1.92755674000971      1.19932005484304      2.66129452064939
  F          -0.72064540572273      1.89081862246438     -0.82940095280611
  F           0.59130274563314      3.55791406890345     -1.26336391208498
  H           0.84532019352156      1.74633496058546     -2.04565764989857
