17
Coordinates from ORCA-job NEB_product E -38.483921606660
  C           2.13690038798343      2.37109496957407      0.21503493979853
  C           0.83222350857435      2.60212948178385     -0.52118883377651
  Cl          2.16431895487880      0.57840846758356      0.37207990177855
  H           3.00822589221822      2.65692722386298     -0.37735708042817
  C           0.88048662738738      2.28854027566121     -2.03372681790896
  C           2.15890419891423      3.01055689962924      1.59355683622383
  C           3.33364477778420      2.58969177783430      2.40823232163999
  C           3.23447230502461      2.13889250476447      3.64496823880722
  O          -0.19249618772928      2.91607590589633      0.00605751348522
  Cl          2.25200751480537      4.79039857698589      1.30758376317037
  H           1.21517096424160      2.82883184273320      2.11364711877554
  H           4.29371067444796      2.69623196380050      1.92344810224147
  H           2.28205148663198      2.03724595477857      4.13813996484734
  H           4.10246534504611      1.85003254823341      4.21082640258494
  F           0.19662166638778      3.22233831617012     -2.72129012086329
  F           2.14156504813934      2.28850255604335     -2.51659862214584
  H           0.42872683526394      1.30390073466496     -2.24311362823023
