24
Coordinates from ORCA-job NEB E -40.764691137920
  C          -0.33331279453081     -0.61837876464649     -0.64790090347560
  C          -1.60230888496594     -0.11634443182549     -0.30560625082141
  C           0.20106751679222     -0.47143156200719     -2.04727154148094
  H          -0.04741332114457     -1.56536499759020     -0.20694560072503
  C          -2.26288769781707      0.92391411480976     -1.17236697668871
  C           0.81885730417680      0.51329777382002      0.52962992447523
  C           0.26763140421713      0.18739245590432      1.78291051404447
  C          -1.03770410449696      0.57901192196972      2.06293482965119
  O          -2.03657370077577     -0.32865722534061      0.87524070578166
  O           2.08495026090010      0.23466960763603      0.15115381488346
  H           0.54002448583196      1.46922007163954      0.09276419072602
  H           0.66888283058201     -0.66004339012094      2.31842823522182
  H          -1.36768916349894      1.55653850567079      1.73935163570464
  H          -1.48994974144923      0.23787216591180      2.98108044672460
  F           0.49513786598793      0.81339390654675     -2.37051725363746
  F           1.34946296266249     -1.17347757886183     -2.20202058452938
  H          -0.50662338117946     -0.83950196978205     -2.81223570558491
  H          -3.19727705249932      1.23569491839860     -0.71371286897430
  H          -2.46841835750816      0.52197177725467     -2.16278226107272
  H          -1.61487342881821      1.79159770294959     -1.29322602152746
  C           2.74375741861508     -0.86254489987372      0.74636331316585
  H           2.97833927337557     -0.65930043336800      1.79561275021495
  H           3.66608369819671     -0.99106701344524      0.18358633344916
  H           2.15083660734643     -1.77846265564984      0.67552927447486
