24
Coordinates from ORCA-job NEB_product E -40.799861126190
  C           1.90723896083931      1.06385293282420      0.98591537207836
  C           1.69437216424424      2.47512178952787      0.42687405727474
  C           1.90201688858989     -0.04054486378096     -0.06726766979151
  H           1.08144494892812      0.84119672235062      1.67049631564203
  C           2.29338536022758      2.75510218420172     -0.91506523924690
  C           3.20148032536366      1.10410608224484      1.84793075513763
  C           3.49638989747477     -0.25177870193441      2.43201005595660
  C           3.16286098379770     -0.60846941607986      3.65703399110624
  O           1.11765141940100      3.29778682563437      1.08894793328955
  O           4.25955713827381      1.57762027000029      1.03974880757731
  H           3.01248740386108      1.82534234054214      2.66264039974476
  H           4.00565050314676     -0.93015457285343      1.76232954192313
  H           2.65488888087081      0.06731874969853      4.32634352365242
  H           3.37449222464874     -1.59214605294555      4.03791186662746
  F           3.06588956458010     -0.16595271055865     -0.73696300645752
  F           1.67529412954965     -1.24724454597684      0.51550984586782
  H           1.10110464316115      0.10268950042173     -0.81202510109574
  H           2.22369070181874      3.81723084369722     -1.13496841084448
  H           1.77217583244211      2.19512277033864     -1.68868347935727
  H           3.33250007250431      2.43293610673023     -0.90924696082626
  C           5.41596638294074      1.89924938652301      1.77048846192999
  H           5.20860524362590      2.69110719529379      2.50102872665671
  H           6.14552745244024      2.25313015508850      1.04529122215902
  H           5.81652887726960      1.02747700901197      2.29861899099592
