20
Coordinates from ORCA-job NEB E -28.653880366510
  C           0.68170598743148      0.35901831086546     -0.33435224802316
  C          -0.31371120838908      1.31569922600673     -0.58232219162043
  C           0.39939001989412     -1.07668048140226     -0.72059089198678
  H           1.70114865287489      0.66683404857573     -0.55576477567415
  H          -0.03153089791873      2.36910882777345     -0.67671573143224
  C           0.57680354084472      0.40186402460028      1.55655172441711
  C          -0.74817899680054      0.05458505739900      1.83296306003085
  C          -1.74636117648897      0.94616342923676      1.34055529653897
  O          -1.54510894024715      1.04920930270434     -0.25660625027433
  Br          1.95906779521825     -0.75804682005960      2.20841930947066
  H           0.88926199439371      1.42643972400646      1.72307412649146
  H          -0.99636123875749     -0.98971502473416      1.95086341318694
  H          -1.63369949835722      1.99011075274502      1.62608431835601
  H          -2.77119783565674      0.60716397782455      1.43623075159637
  C           0.74840671380542     -1.28532594474192     -2.19208304526565
  H          -0.66042510141046     -1.28592894117139     -0.56703075863093
  H           0.98770383610639     -1.77053971302598     -0.11862532759281
  H           0.15234038175669     -0.62835867234361     -2.82131827548928
  H           0.54983219141129     -2.31524140103728     -2.47770130332374
  H           1.80091378028944     -1.07635968322156     -2.37163120077487
