20
Coordinates from ORCA-job NEB_reactant E -28.683496806270
  C           1.86774533159380      0.12655266857891      0.24281632507689
  C           1.32856848812678      1.05439614243295      1.02376002313703
  C           2.13220581185082     -1.33655491041965      0.46313770223871
  H           2.16520981081941      0.47833846455593     -0.73522521367321
  H           1.23644620738845      2.06672544129036      0.64900138190491
  C           2.39098331363342     -1.63376427646665      4.14038527904101
  C           2.03823859689131     -0.42470252355350      3.74441233672247
  C           0.73741283757036     -0.12086609596945      3.05490329495544
  O           0.79787788867421      1.05143923712083      2.27947584355891
  Br          4.01604540262477     -1.98039723431469      5.04606201522596
  H           1.79124762759488     -2.51860372731694      3.99427986431131
  H           2.67668282058260      0.43027981071574      3.91645286734476
  H          -0.01622129566448      0.10238308311047      3.82217781595062
  H           0.38586346613084     -0.97625188127225      2.46814490370312
  C           3.24629695333848     -1.83079988744008     -0.45584986416622
  H           1.22330635170118     -1.91175752753442      0.25158575477280
  H           2.42036797905533     -1.53189506555840      1.49632038577157
  H           2.97376008233247     -1.68975162393422     -1.49941687340765
  H           3.43356053100266     -2.88925386249051     -0.28926219841440
  H           4.16670179475269     -1.28441623153444     -0.26286164405403
