20
Coordinates from ORCA-job NEB_product E -28.695635568640
  C           2.47940492280375      0.06626518575989      1.26724674209155
  C           1.38044308407901      1.09673526941412      1.13736071909859
  C           2.33547696733696     -0.96011059010652      0.13136594325367
  H           3.41759774661512      0.61605595802550      1.10679887196934
  H           1.28227469308253      1.48952757313288      0.10645919543435
  C           2.46974063618860     -0.50104540620746      2.69224914671744
  C           1.53654794602078     -1.64433176485076      2.89786984994819
  C           0.42049705678105     -1.53925914945992      3.59502244950900
  O           0.67235916979028      1.48895390436115      2.01931725813178
  Br          4.29351799019899     -1.04922841454578      3.23548268523285
  H           2.21873724663607      0.31219893692563      3.37889788291153
  H           1.82865678020494     -2.58561976490703      2.45262255201944
  H           0.12190392969544     -0.60818552591347      4.04753077920788
  H          -0.24516366870992     -2.37494791034597      3.72492219002242
  C           3.53612989116058     -1.88810388433158     -0.01042801410833
  H           2.21156402044619     -0.40576363234756     -0.80272863262400
  H           1.42624558897670     -1.54438459453248      0.28882985485942
  H           4.45470029569832     -1.31501184777307     -0.11482827930844
  H           3.41612624611109     -2.50843461687992     -0.89560477872750
  H           3.64273945688353     -2.54540972541767      0.84731358436082
