19
Coordinates from ORCA-job NEB E -34.283691713010
  C          -0.11589066427998     -0.97602774935702     -1.14908159102665
  C          -1.47754385835180     -0.69389893227902     -1.13060477164960
  F           0.35155979997714     -1.93323456144789     -0.31176195731040
  H           0.44001916871033     -0.95673303979671     -2.07744233013460
  O          -1.94983827061304     -0.02066932734425     -2.22298919051271
  C           0.52116585494639      0.70346358837831     -0.10785700175270
  C          -0.21005284675975      0.49122888516774      1.06081936802981
  C          -1.60636113766213      0.60335875280998      1.00868367967816
  O          -2.15990139377416     -0.68989242433145     -0.05669282804466
  O           1.86580237914109      0.66244242721501     -0.21524699789431
  H           0.13615338159617      1.40349788943930     -0.84465327686718
  H           0.21997756215779     -0.11316487958130      1.84413203060349
  H          -2.02728370708190      1.42066030567613      0.43550525474010
  H          -2.16803749153143      0.35061930080278      1.89485585045512
  H          -2.85235968254774      0.27217268439490     -2.03384340946972
  C           2.60211982122100     -0.00765585051846      0.79154482667592
  H           3.63658685195012      0.00398654844995      0.45363478184562
  H           2.26988475536328     -1.03999345290099      0.91434293810115
  H           2.52399947753865      0.51983983522298      1.74665462453316
