19
Coordinates from ORCA-job NEB_reactant E -34.311872920350
  C           1.93590640171072      0.05879584405956     -0.14512253702864
  C           1.58414417551303      1.25828292842905     -0.60548585261431
  F           2.31368838700798     -0.19323509209261      1.13516389081446
  H           1.95339230065046     -0.81165369256132     -0.77458344782262
  O           1.22798119707374      1.35270389442152     -1.91023378614185
  C           4.16171018415573      3.73745748213675      1.45009389167692
  C           3.44533755753781      2.61874391116436      1.43847869963550
  C           1.95144857087945      2.63774705625021      1.34658925987074
  O           1.48473557735489      2.46115538102630      0.00513727925654
  O           5.50070536472583      3.87714461951388      1.51052593945916
  H           3.69137924936235      4.71237622179452      1.42569203008753
  H           3.90672831417535      1.64529067609604      1.45589144292636
  H           1.55927598878601      3.61848824045356      1.62446826176386
  H           1.51150132994752      1.87375237740734      1.99372375378997
  H           0.99307338881450      2.27546459095105     -2.07941343901219
  C           6.27931719479991      2.70199735524730      1.54407127521547
  H           7.31644783353161      3.02912209739229      1.58609701178232
  H           6.12110253277678      2.09763316610041      0.64588733485513
  H           6.04722445119631      2.10053294220979      2.42791899148563
