24
Coordinates from ORCA-job NEB E -43.460694503590
  C          -0.41815426567688      0.37008869628748      1.19712247253465
  C          -1.68324066814048     -0.28282235503467      1.21280287233150
  C          -0.42993266736338      1.83380940634730      0.84649498197741
  H           0.16898455066069      0.22236766018113      2.10621371396849
  C          -1.89890722837724     -1.28775947910878      2.17857219866030
  C           0.45768484336610     -0.71742672569578     -0.07790074070924
  C          -0.41444017212030     -0.67372522480268     -1.17863268496743
  C          -1.77760122909947     -1.12716875028078     -1.00554039571908
  O          -2.40451508752024     -0.26822548613083      0.09979624217631
  C           1.92305148495944     -0.35913143948268     -0.25334094227696
  H           0.37009042959416     -1.60912205862510      0.54191229880743
  H          -0.19563597373546     -0.03428256135115     -2.01683483858167
  H          -1.87906245611864     -2.14754877941837     -0.63054661165598
  H          -2.42254889180697     -0.95524048312384     -1.86251289328696
  Br         -1.54515508545425      2.74128875687669      2.23583005850013
  Br          1.32389901026842      2.67987391200785      1.00378475065595
  Br         -1.18985297268112      2.32112609693609     -0.85914943274170
  N          -2.08282358335996     -2.09142296437469      2.97970959615417
  C           2.26044881513035      0.48590418408530     -1.47643415512159
  H           2.45865103708591     -1.30920323956102     -0.33849867228672
  H           2.30205044202756      0.12085367966230      0.64990856017252
  H           2.10244809008516     -0.08216483008311     -2.38985412673517
  H           3.30680269558498      0.77571637839485     -1.43272115501483
  H           1.66775888269161      1.39421560629452     -1.53018109684153
