24
Coordinates from ORCA-job NEB_product E -43.488094014910
  C           3.00420427108722     -0.92098574366101     -0.86916442787214
  C           1.54053406231194     -1.35395718316856     -0.75966230547670
  C           3.06876868459903      0.56205420250014     -1.19861354975288
  H           3.47721134604331     -1.03347389899079      0.11716716432856
  C           1.40085512335053     -2.60424621494593     -0.03020472020957
  C           3.62526593706578     -2.02250554629838     -1.79696270453908
  C           2.73540178124075     -2.31303089864878     -2.97749779875401
  C           2.08330182509032     -3.45160595629369     -3.12342461183727
  O           0.60581777257377     -0.75595111020970     -1.21368091402283
  C           5.09876835360325     -1.83327301209793     -2.20814272633407
  H           3.60373593855400     -2.91433480447785     -1.15525508490125
  H           2.65004863963127     -1.54445722745496     -3.72947617038121
  H           2.14500561975612     -4.24773853593478     -2.39811458368831
  H           1.45801575091189     -3.63571220904788     -3.97946835943231
  Br          2.03255205834403      1.54009354906397      0.19097996035027
  Br          4.87938688728840      1.28188886414155     -1.05210952581355
  Br          2.33468004842185      1.07053124417778     -2.91395982639377
  N           1.29658562517523     -3.56328177531139      0.58418423122756
  C           5.33933219625216     -1.08337539617165     -3.51367712332969
  H           5.51587429775917     -2.83603929234443     -2.32583974358291
  H           5.64576378515395     -1.35765922077945     -1.39274330932882
  H           4.95897744792636     -1.65283766473335     -4.35771197205367
  H           6.40901984679378     -0.94678745457779     -3.65079546231146
  H           4.87709270106591     -0.10181471473513     -3.52872643589087
