27
Coordinates from ORCA-job NEB E -35.467683254930
  C           0.38358506995859     -0.98534502552909      0.16205076971025
  C          -0.92650411154029     -0.69195549737023     -0.22426080343546
  C           0.63726396134007     -1.74810178678126      1.43845850890686
  H           1.06027362477130     -1.24893002469148     -0.64504538426737
  C          -1.18993413982139     -0.38483552459863     -1.68457567851093
  C           0.97836090051183      0.90175529148051      0.65455827853270
  C          -0.18693557433075      1.66942364603281      0.77513771689811
  C          -1.25003030319063      1.13889908673858      1.51894323879059
  O          -1.77461891903378     -0.27358521237993      0.64885384460921
  O           1.86857226333172      1.29512573072635     -0.30440686765624
  H           1.43096558110096      0.53207011154786      1.57061763655628
  H          -0.41984617571319      2.31377031289971     -0.06233802035781
  H          -2.17666885008179      1.69421572075925      1.54444238949728
  H          -1.01145663533419      0.65609789538659      2.45838471391227
  H          -0.05210199173687     -1.43874989562716      2.21864607974885
  H           1.66044044777386     -1.63330900234522      1.79224631317611
  H           0.47140766420391     -2.80933594284364      1.24630113011600
  C          -2.67761367182568     -0.31574142780177     -2.00349836395776
  H          -0.69865054985085     -1.13104816218231     -2.31137759910674
  H          -0.72504162658842      0.58742597749535     -1.89278028667112
  H          -3.14375912439668     -1.28482133270498     -1.84120801142112
  H          -2.83332363630070     -0.02123277858017     -3.03868716061692
  H          -3.16410812226989      0.40677981355650     -1.35361548814741
  C           3.17422810709546      0.78532213118916     -0.18081366822378
  H           3.76286481368984      1.25384054859503     -0.96725216656343
  H           3.19515610865677     -0.30160114195342     -0.31299027906869
  H           3.60747488958079      1.03386648898158      0.79420915755028
