27
Coordinates from ORCA-job NEB_reactant E -35.505283194420
  C           1.93558939954996      0.12233328156143     -0.01168876027157
  C           1.60709342860493      1.32722976216765     -0.46529611277470
  C           1.81036503669595     -0.32954452978757      1.40725746413029
  H           2.31605672789843     -0.60819640040315     -0.71123417752884
  C           1.69961721346866      1.72596393978238     -1.91423385384551
  C           4.07872739858846      3.91883135960030     -0.05213812128647
  C           2.77874553604965      4.02794271144461      0.18830666530998
  C           2.03308186806770      3.07901517820490      1.07497752130423
  O           1.07540103917882      2.29734392076026      0.37419522267177
  O           4.73931413930410      4.76558185451200     -0.88536984225984
  H           4.67800430310179      3.14368488227146      0.41696995925051
  H           2.20214848044607      4.79924254323702     -0.29816235021343
  H           1.44074665161366      3.63527385531642      1.80855240785053
  H           2.74203778015613      2.42720170935875      1.60330715160637
  H           1.26284496705801      0.40267719189879      1.99463740006440
  H           2.79515874220833     -0.48069745678932      1.85202742194320
  H           1.28026291774044     -1.28018457449273      1.44868019156410
  C           0.30534294663851      1.96487749062560     -2.49309551640557
  H           2.21203499192951      0.94425248948226     -2.47647248449096
  H           2.28006897340141      2.64900122431226     -1.99035929965065
  H          -0.27180288712295      1.04319649118600     -2.47909937971774
  H           0.37316604974181      2.32111008816046     -3.51843428986039
  H          -0.21819300965861      2.70683650388219     -1.89581864631045
  C           6.12865008660931      4.56423037381497     -0.98439919215213
  H           6.49425019370815      5.29791794619172     -1.70043492943984
  H           6.36160131041915      3.55687693209077     -1.34627433239862
  H           6.62438571460265      4.72130123161056     -0.02030011708865
