24
Coordinates from ORCA-job NEB E -36.632305924930
  C           0.51142484070701      0.83725815147028      0.11709581805319
  C           0.41938164311156      0.94880589866242      1.50982056575062
  O           1.73378784742743      0.45256141085721     -0.41388120188539
  H          -0.04421945964115      1.55409249172883     -0.48288115763917
  N          -0.67344491692386      1.63063566226609      2.02943466974917
  C          -0.58862950243590     -0.92940279089797     -0.06244814697287
  C          -0.61072175586544     -1.49417500850834      1.21401039772360
  C           0.59933422111994     -1.54444073452793      1.92245471913065
  O           1.00073156352951      0.11185971706443      2.28657579551501
  O          -1.79535109371279     -0.61209603730862     -0.61975446603707
  H           0.16919697090211     -1.28213483603337     -0.75850090137049
  H          -1.53127715607103     -1.38053384404214      1.76953497512251
  H           1.49267540495798     -1.78147553293880      1.35805902624174
  H           0.59105782757675     -1.94619503784058      2.92495179845445
  C           1.89157467413373      0.68988340870760     -1.78612719280117
  H           1.19439126706004      0.09739941061989     -2.39227211713582
  H           2.91123313252434      0.39732363725012     -2.03101027182023
  H           1.75246990575441      1.75079295207839     -2.02928985356657
  H          -0.71584689659703      1.64744255108923      3.03533908227401
  H          -0.97361563582245      2.47160179655418      1.56774107765607
  C          -1.81549070869512     -0.44049952257891     -2.01387297966917
  H          -1.24558888915345      0.44491844191504     -2.32008236657596
  H          -2.85903368338290     -0.30497765315373     -2.29278137101433
  H          -1.41403960050369     -1.31864453243332     -2.53211589918278
