24
Coordinates from ORCA-job NEB_reactant E -36.666922300030
  C           0.84293536362922     -0.23931785732795     -0.24009103046236
  C           0.98116555206646     -0.86881866187158      0.93033240293408
  O           1.01450025314236     -0.87148706756231     -1.45224378744329
  H           0.54731960345233      0.80454693621291     -0.28087960332348
  N           0.59941842455301     -0.28832055300431      2.14957176351981
  C          -0.00928964787878     -4.28899447610279     -1.03749736368874
  C          -0.28303441865840     -3.31801107274777     -0.17531596780821
  C           0.44791876378157     -3.16739315311303      1.11995061589954
  O           1.45273783505989     -2.14884625890732      1.04395090669467
  O          -0.53232846273991     -4.48949690452549     -2.26741206883269
  H           0.69539335509751     -5.07623934501926     -0.80330020726643
  H          -0.97685092294189     -2.52704591856664     -0.40965537965865
  H           1.00084317295539     -4.07583942745078      1.36732330810199
  H          -0.24948442303658     -2.92511591171449      1.93338423310723
  C           1.70442851443439     -0.10203904031908     -2.40547858028100
  H           1.69210185360292     -0.67313621134273     -3.33241418799691
  H           2.74238303955428      0.07561804435552     -2.10278919195652
  H           1.21223963786334      0.86594205495953     -2.56518189608714
  H           1.14006327529765     -0.64645783092317      2.92553752648565
  H           0.57487871649118      0.72039265346468      2.13410027444671
  C          -1.37350791792236     -3.47991127421107     -2.77739133146145
  H          -1.58835297847142     -3.75718461175365     -3.80817834972617
  H          -0.87290400443915     -2.50793960825447     -2.74767003794560
  H          -2.30947458489302     -3.42190450427475     -2.21245204725100
