19
Coordinates from ORCA-job NEB_reactant E -43.767706373850
  C           2.16271429120856      0.55635992420131     -0.34907123458223
  C           1.56719577427259     -0.03098262061193     -1.42495512627493
  N           1.91513602716384      1.81097357071525      0.22238891650122
  H           2.93248622323642      0.00963125086369      0.17604157976486
  O           1.80270885257703     -1.32024260669082     -1.69768928736771
  C           2.44257132817670      3.66838882303198     -2.52643872315584
  C           2.09732685334862      2.42893353386633     -2.84894749852550
  C           0.73483165958268      1.85084039750727     -2.66100792817532
  O           0.77487517043511      0.46139450138350     -2.36277016528183
  N           3.77711094452988      4.14609261884503     -2.77643266314458
  H           1.79000055203604      4.40098986142928     -2.07690052362396
  H           2.84387334735342      1.77471905435198     -3.28746414800593
  H           0.18137950159907      1.89662098047831     -3.60538689348522
  H           0.18225396038118      2.39883954032654     -1.88767116173693
  O           2.78184518172938      2.26679488495164      0.94241473850357
  O           0.84482471065338      2.36492194440528      0.01010621135555
  H           2.28098019551672     -1.76734667187746     -0.98732567475815
  O           4.59104769777402      3.35750313661237     -3.20407137258248
  O           3.98673772842538      5.31276787621044     -2.54271904542458
