17
Coordinates from ORCA-job R E -21.899487732400
  C          -1.50095054156538      0.07314039649262     -3.07188152325332
  C          -0.02156306813419     -2.18183517071090     -1.70459627776415
  C          -1.34041585612331     -2.03988803805642     -1.78043556774713
  C          -2.05155838452027     -0.95598061920914     -2.43721551215858
  C          -0.72089549166215      1.37324747133304     -0.06166364156127
  C          -0.10700688339939      0.37634985238860      0.55089781422244
  H          -1.97389674000336     -2.78517056983314     -1.31547646774072
  H          -3.13133791177474     -1.02064819662663     -2.38485434381001
  H          -2.10258557207533      0.83887467502832     -3.53074707932759
  H           0.42671057574646     -3.01582019695939     -1.19299519533003
  H          -0.43506901722672      0.19192897209009     -3.15928211679236
  H           0.66066436371917     -1.47586335742858     -2.14493000825961
  H          -1.78996560894961      1.45060803429926     -0.06275857712297
  H          -0.63609042997238     -0.40405438740130      1.07735786500452
  H          -0.17356212273850      2.14112628329543     -0.58432228852989
  O           1.23102558280136      0.18455387290380      0.61159410204495
  H           1.67705710587836      0.89397097839436      0.13058881812572
