19
Coordinates from ORCA-job NEB_reactant E -34.107579104640
  C           1.93285373323088     -0.66885771984343      0.04971270209193
  C           1.46608030128979     -0.89923803383617      1.28167720823698
  Br          1.60632021688189     -1.65329327418691     -1.52519216873500
  H           2.51095408334284      0.22145819063144     -0.11840072585853
  O           1.76821109308045      0.05405871734799      2.20054646413275
  C           2.57105981172640     -4.55064376572335      0.14817660544123
  C           2.13880437681677     -3.77069214254510      1.13633777554337
  C           0.75698636359641     -3.20417180335793      1.21082535785320
  O           0.73168244715654     -1.91145048836042      1.79612093582244
  C           3.87166931401480     -5.09144283824870      0.14014391805618
  H           1.94734268710000     -4.80604162594011     -0.69811415128654
  H           2.79142125437200     -3.51673084365333      1.96225651028346
  H           0.15567959920956     -3.80508085366840      1.90489881724792
  H           0.26416188690778     -3.21313754381929      0.23391938813267
  C           1.35325869669325     -0.16052275524510      3.53742443857354
  H           1.71183564705804      0.70720621719472      4.08653713502209
  H           1.79495047782675     -1.07025329064948      3.95153054422508
  H           0.26529812781513     -0.22448102277746      3.60852255209440
  N           4.92462988188070     -5.54448512331897      0.14157669312281
