19
Coordinates from ORCA-job NEB_product E -34.137655204680
  C           3.20072560842072     -2.15925666954590      1.44713748282618
  C           2.13531479718356     -1.77958396723025      2.46776280875970
  Br          3.66580279634795     -0.64877394905215      0.31583164464297
  H           4.11581650019469     -2.42724873305014      1.98557495035396
  O           1.86602362740904     -0.48795700917096      2.47293019581101
  C           2.70103039452440     -3.36722530726176      0.63236079617958
  C           1.50143337044302     -3.00937741611289     -0.20836155501681
  C           0.28931483579030     -3.46724141528190      0.03478605022500
  O           1.61831511267910     -2.59936501795647      3.18012418597672
  C           3.76230740143025     -3.87490615916039     -0.21003065254878
  H           2.42632044003432     -4.14641621483150      1.35681071327605
  H           1.69665188570779     -2.33211722385642     -1.02881676903577
  H           0.08554840795083     -4.14111227708788      0.85131753689977
  H          -0.55121747051718     -3.18151694922581     -0.57359526635204
  C           0.88351046540878     -0.04131900824731      3.39854416338168
  H           0.74229645782506      1.01716031938088      3.19819200845741
  H           1.23182098660553     -0.19709619965825      4.42114087792159
  H          -0.04753454877089     -0.59195092369504      3.25307070019703
  N           4.60081893133273     -4.26029587895584     -0.88237987195525
