20
Coordinates from ORCA-job NEB E -52.130461179690
  C           0.84228404069562      0.22393460186234      0.46613805524821
  C          -0.05613417933376     -0.86363776258289      0.54420272603264
  C           0.69477138817613      1.31710209643189      1.49111162596836
  H           1.89402010697200     -0.05240818706405      0.37997042856991
  C           0.41947766789442     -2.25798680239912      0.23241406197522
  C           0.39706462171325      0.90742338279850     -1.26295587614860
  C          -0.98367292637693      1.09649522747740     -1.20778843969886
  C          -1.81179654125995     -0.03532945744254     -0.89172221095101
  O          -1.34099363278021     -0.63356934772511      0.47081225460643
  F           1.15207375996488      1.99999992397264     -1.47179567094316
  H           0.82157078814512      0.06647254061907     -1.80773642643069
  H          -1.36250932810033      2.09803338746625     -1.07492528325396
  H          -1.69857716471626     -0.88913528139084     -1.55829382551007
  H          -2.85428119613549      0.20531761273987     -0.71000369238463
  Br          1.25080753852398      0.50951956022298      3.21619342614472
  Br          1.89279015300857      2.82082177191231      1.20120318952784
  Br         -1.08697409381359      1.99917742701794      1.76286221275543
  Cl          0.63837714675825     -2.47594211998221     -1.55839667118884
  Cl          1.97662525738469     -2.60103529112247      1.00601221486296
  Cl         -0.78492340672039     -3.43525328281197      0.77269790081810
