20
Coordinates from ORCA-job NEB_product E -52.161810733860
  C           1.64705552672864      0.57683131597755     -1.65989254907477
  C           0.87782545814635     -0.69136941680802     -1.34039463476355
  C           1.38744547102985      1.59830535001872     -0.55983533770956
  H           2.72517128806759      0.37270935916367     -1.66778713031129
  C           1.68541115144688     -2.00117994019167     -1.34649525959937
  C           1.29611738318571      1.03528362874479     -3.10973774309649
  C          -0.00351413182640      1.75990245080939     -3.26659801942508
  C          -1.12558298894709      1.15673471376149     -3.61266515569519
  O          -0.30241022121587     -0.71364303384605     -1.15824489257694
  F           2.33211404014756      1.83414127591487     -3.53733922548553
  H           1.32202736437223      0.14336270634973     -3.74911358473730
  H           0.04497429766950      2.82854135934876     -3.11063701844620
  H          -1.17436840165034      0.09454359260720     -3.78525606168762
  H          -2.04493507727723      1.70499323796281     -3.71193993544774
  Br          2.08572449783671      0.85262083621443      1.12103452756952
  Br          2.33074072966531      3.26038044606324     -0.89934005574504
  Br         -0.47247744332774      2.02032221869883     -0.23073130311867
  Cl          1.82022606044224     -2.40578762597668     -3.08683121313416
  Cl          3.30796097842760     -1.86274344197066     -0.65520233311742
  Cl          0.78299401707850     -3.26924903284242     -0.51159307439759
