20
Coordinates from ORCA-job NEB_reactant E -52.164129554240
  C           1.83057574827039     -0.11298520020152     -0.02221902818155
  C           1.22778898115403     -0.48446767602033     -1.16744606362012
  C           1.85884022980187      1.31066317705368      0.35663655676646
  H           2.31338110541706     -0.82079772091740      0.62739988665061
  C           1.19082951340406     -1.91856378287196     -1.62294479472946
  C           0.16645018036710      1.96717947783636     -4.87685559847761
  C          -0.25847775186602      1.70584602824651     -3.65537676712406
  C          -0.14656181095555      0.34985569505400     -3.03432409998039
  O           0.71469495946693      0.50499681484732     -1.90677423412538
  F           0.05175617430201      3.18068286068183     -5.41821756763823
  H           0.61266807782259      1.25795281064943     -5.56075967771392
  H          -0.67985621825899      2.48711149422320     -3.04144943023863
  H           0.25706624430127     -0.37079055977405     -3.74856078645406
  H          -1.13167606655956      0.01795555153531     -2.68569857584303
  Br          2.71995788162634      1.56447601863676      2.07231086024431
  Br          2.82810447743631      2.38843385042271     -0.98093001184364
  Br          0.05096602011974      2.06319936944827      0.47610499066385
  Cl          2.07190520522540     -2.06590559928733     -3.17802009748366
  Cl          1.96644831235615     -3.02183992704416     -0.47303589402824
  Cl         -0.49336126343112     -2.47840268251863     -1.83413966684326
