21
Coordinates from ORCA-job NEB E -44.258969044790
  C           0.46381398836721     -0.84250742415108      0.70487034513348
  C          -0.82076108904784     -1.06814095592346      0.11128917835356
  N           0.51182445004246     -0.42940929838013      1.99635227833394
  H           1.29032994197919     -1.46934981647405      0.38535730476521
  C          -0.90550463162543     -2.00418563481569     -1.09060934815296
  C           0.77624493081869      0.82305073005658     -0.45866859807815
  C          -0.29810378778155      1.64340211137466     -0.07360601615657
  C          -1.57257075548881      1.36692147761079     -0.51644837826498
  O          -1.78547951306342     -0.30771213643632      0.37226441486879
  N           2.07281560960728      1.12749836710264      0.05618375908583
  H           0.82240697834001      0.39547532919386     -1.45179171252216
  H          -0.14840826704447      2.27097525265031      0.79531598389931
  H          -1.72183012894615      0.93001816886115     -1.49138748157777
  H          -2.40924440682803      1.91799615165756     -0.12142240636173
  H          -0.30857852174338      0.07701838323167      2.30426559944880
  H           1.38255765182990     -0.05259227916234      2.34749548202405
  F          -0.45401242870532     -1.40107979066819     -2.22902595907098
  F          -0.12372001798699     -3.09207076008498     -0.91455566697269
  H          -1.93812816658792     -2.33258832153497     -1.27596939152944
  O           3.03155326378570      0.85765159339091     -0.63361111030282
  O           2.13479490007889      1.58962885250106      1.18370172307728
