17
Coordinates from ORCA-job NEB_reactant E -37.636223416750
  C           1.68348070362913     -0.22917834297127     -0.04587551128396
  C           1.66094983715848     -1.53654810649280      0.21475187889010
  Br          2.10086884085151      0.63824243699095     -1.67016748922016
  H           1.42310823172335      0.47976149727736      0.71971436400706
  C           1.28209983000264     -2.02675945842096      1.60074474386315
  C           2.76048388331931     -4.40702701766371     -3.41401645807082
  C           2.95420625389991     -3.91357833951346     -2.20682543710272
  C           2.57163224125598     -2.52334990831082     -1.80052569095615
  O           1.94564445982977     -2.62044667104589     -0.52306178338896
  H           3.06904840179842     -5.40454400352624     -3.67281998759059
  H           2.29785986854517     -3.82905952620769     -4.19692897926307
  H           3.41346649749634     -4.49833788057866     -1.42300394273209
  H           1.88947128836529     -2.08244641601292     -2.53403443972716
  H           3.47413184980717     -1.90270182769303     -1.72331779772382
  Cl          2.74369151756375     -2.72436539116759      2.35358192068838
  Cl          0.64794776350383     -0.78179846656311      2.67519533364363
  Cl          0.05600853124995     -3.30636257810016      1.44908927596718
