22
Coordinates from ORCA-job NEB_product E -60.361510996970
  C           2.84636948041944     -0.87630766781164      1.32888196139810
  C           2.89508583869672     -2.18584660009631      0.57704255132200
  C           3.42459109552602      0.24718513499852      0.46138332927729
  H           1.78703363748331     -0.64249139721073      1.50309721893414
  N           1.64874533736088     -3.08081264756119      0.87717491387814
  C           3.53015307236054     -0.94637037886073      2.72769031208865
  C           2.50033690272969     -0.84156516191816      3.82490109819510
  C           2.54484367081393      0.07859988474709      4.76776664362292
  O           3.69128615534224     -2.61117960817224     -0.17969814155221
  C           4.33506999543772     -2.23029918944095      2.94899117908607
  H           4.24952982193674     -0.12565048831127      2.81519840547015
  H           1.71507182767918     -1.58376914814858      3.79072759100071
  H           3.32515347471912      0.82012813006267      4.80780798944289
  H           1.79781362916555      0.12308779977368      5.53976542459112
  Cl          5.16246189676757      0.04944815626129      0.16880916820313
  Cl          2.56092772836750      0.26642496218188     -1.10049204496086
  Cl          3.14514763883924      1.80745860199186      1.27269609926374
  O           1.63061020491401     -4.12723625948625      0.30335202079266
  O           0.83241722537549     -2.63652175893389      1.64488315369207
  F           3.58236717572623     -3.33515078519003      2.80579955900360
  F           5.36763212550431     -2.36030790911244      2.11265510044721
  F           4.83785206483457     -2.26372366976257      4.18566646680339
