22
Coordinates from ORCA-job NEB_reactant E -60.358332274430
  C           1.68537339517422     -0.02609128170559     -0.27422712745971
  C           1.86645408709284     -0.78447159519569      0.81887436211499
  C           2.52952852971437      1.15506388595501     -0.57926192208430
  H           0.90991426721050     -0.29062001663003     -0.97687734191021
  N           0.97512228790408     -1.94753009494858      0.97709208034654
  C           4.59787550373498     -1.97946156574796      4.35482763120487
  C           3.65819267560807     -2.04502695255923      3.42734928789416
  C           2.77708626326964     -0.88907061223000      3.06664610456419
  O           2.86922497907829     -0.60438393279914      1.66637806833874
  C           5.45935295295089     -3.14720069483503      4.72487119640396
  H           4.80977235641597     -1.08888214685566      4.92774453914526
  H           3.47726113717416     -2.95764337249941      2.87567757353960
  H           3.11166358841412      0.02417301270734      3.56845226814703
  H           1.74803662395823     -1.10682886583308      3.36862506079664
  Cl          4.20309866947208      0.63354680742441     -0.94462561984634
  Cl          1.88877733326908      2.03907139370099     -1.97282217766346
  Cl          2.59038662951597      2.26452722081094      0.81667185301104
  O           1.35041540873527     -2.82460179566023      1.71885290237615
  O          -0.05269415471931     -1.94283605587627      0.34743604752484
  F           5.25892248870781     -4.22486635063849      3.95993338610884
  F           6.76568306463154     -2.84560286563004      4.63512710959597
  F           5.25125191268721     -3.53226412095427      5.99705471785119
