17
Coordinates from ORCA-job NEB_reactant E -30.310101732310
  C           1.58456404792634      0.25744443357327     -0.05297787868935
  C           1.12564465986167     -1.01347642767064     -0.12217962896577
  N           2.56836132750867      0.75110292946795     -0.85624484898945
  H           1.12138041785133      0.94765397889274      0.63524327694972
  C           0.05112369820018     -1.41760236477935      0.68542779407704
  C          -0.22838871021161     -3.27259888138975     -3.42721133313524
  C          -0.13253802573257     -2.78570616444258     -2.20470748380017
  C           1.02714634337516     -3.08318401762215     -1.29823286499478
  O           1.75713909992143     -1.92212177978708     -0.96882548341332
  Br         -1.68293099847968     -2.89125002227735     -4.57125839081212
  H           0.49672534117349     -3.93607778962015     -3.87175819695271
  H          -0.88656722994803     -2.12132841173900     -1.80518365087048
  H           1.74785636718368     -3.73987545010829     -1.79214627174115
  H           0.65597112597785     -3.57524898004315     -0.38663058509545
  H           3.08684160130835      0.06698052115798     -1.38378345560854
  H           3.07483873185685      1.56350310729986     -0.55118272205287
  N          -0.83626779777312     -1.75331468091231      1.33625172409465
