17
Coordinates from ORCA-job NEB_product E -30.296307758850
  C           1.50303250678809     -0.69654650025576     -1.22030994002114
  C           1.74968820272938     -1.43122052466916      0.11114523952135
  N           2.71890365852582     -0.28751379573682     -1.86592811645254
  H           0.86712965542395      0.17955686642254     -1.04602946645094
  C           0.60985896390255     -1.39693349703250      1.00411831267210
  C           0.75013410206568     -1.69612196293582     -2.11738854471448
  C          -0.53759258167995     -2.16172339373455     -1.53417513427601
  C          -0.82973047532894     -3.43502775209724     -1.33877073492038
  O           2.79426303599859     -1.96893028540652      0.37102025376628
  Br          0.38637726210251     -0.79812135267987     -3.83795364819512
  H           1.40680618601629     -2.53261976004631     -2.36840501123735
  H          -1.24949089303130     -1.38279742180832     -1.29623076589377
  H          -0.13808122927093     -4.22410613122482     -1.58631203884611
  H          -1.77205415200128     -3.73705528003647     -0.91783224765156
  H           3.39287210237543     -1.04656282519041     -1.88536159314804
  H           3.14478239993440      0.50852586418424     -1.40820072548920
  N          -0.29759874455029     -1.29910224775221      1.69611416133692
