19
Coordinates from ORCA-job NEB_product E -42.646671687440
  C           2.64776368144697      0.42973330166310      1.81578203551514
  C           1.71492570838117      1.60474878141249      1.52412426798759
  O           2.53497646895682     -0.48226889300422      0.76605937489108
  H           3.66360693665809      0.86740801320656      1.85661176049982
  C           1.39686792028511      1.73154070447923      0.11428436022858
  C           2.30599411084194     -0.13663561442877      3.22088370638616
  C           1.08900865821556     -1.01868653306450      3.14320090513378
  C          -0.07405474879178     -0.68416940280247      3.66687816783149
  O           1.30655777733448      2.36651605067214      2.35882987850961
  C           3.48130884756504     -0.87660970415014      3.85367758488527
  H           2.08869441500258      0.72569658232205      3.86282422526890
  H           1.21408597853952     -1.94334078829283      2.59924062533653
  H          -0.21432176845165      0.24044119428276      4.20207762666754
  H          -0.93509173909536     -1.32268240335349      3.57643163720870
  H           3.15760982036124     -1.21031266934694      0.89897310701115
  N           1.13833199679140      1.86182235018324     -0.99200242221985
  Cl          2.99862505587479     -1.50859940080616      5.44838282706657
  Cl          4.03247501770449     -2.25271214997494      2.86213380659194
  Cl          4.87043586237957      0.21891058100290      4.08900652520001
