17
Coordinates from ORCA-job NEB E -33.004067749850
  C           0.76843701413767      0.43908936162020      0.65049728037263
  C          -0.66510404325035      0.43650893416189      0.67351185632017
  Br          1.53597870495713      2.17626559790468     -0.00192150958658
  H           1.20723981810006      0.29480488380296      1.63575963261007
  C          -1.41886138749938     -0.01611010931417      1.87918625285627
  C           1.23543475755946     -0.70905744014368     -0.35881070747051
  C           0.61019970621044     -0.45451246169132     -1.63235596253324
  C          -0.71210110365302      0.19466572236558     -1.68564479725210
  O          -1.36789368923553      0.48134764787339     -0.47205311196468
  I           3.43185308100290     -0.82637446742868     -0.48907662869757
  H           0.97672537972955     -1.63943968608502      0.14403435060351
  H           1.22083370504653     -0.30117856379758     -2.50668113153765
  H          -1.43813885317201     -0.44243478055497     -2.20825473948109
  H          -0.63787343514827      1.12215875067868     -2.27240802569451
  F          -1.07285566630869     -1.32508150788748      2.19752596438754
  H          -2.49277834050250     -0.00955623362762      1.68017703061103
  H          -1.18109564797399      0.57890435212316      2.76651424645673
