17
Coordinates from ORCA-job NEB_reactant E -33.047245678110
  C           1.86429971586935     -0.32644744269704     -0.11783223738043
  C           1.45975753732181     -1.59081804398095     -0.03290711226901
  Br          2.66333302576137      0.60134702869003     -1.56886597776591
  H           1.73079448446528      0.32049623180278      0.73249106653247
  C           0.82628879859235     -2.07679301103293      1.25787713164017
  C           4.37839371824457     -3.68694706709125     -2.43321450542260
  C           3.65577319533428     -2.71065887652792     -1.92140457409604
  C           2.17216040035880     -2.61252101420201     -2.12359704502177
  O           1.46162351066131     -2.63707332456782     -0.89332343346196
  I           6.45652567765006     -3.83370308393357     -2.17197687965918
  H           3.96727237750412     -4.47690956908040     -3.03902679237092
  H           4.10846417592941     -1.93873975378112     -1.31679356848647
  H           1.80128813066350     -3.49001701063666     -2.65981352214114
  H           1.92570537990562     -1.71785817425558     -2.70430884573127
  F           0.59605016460270     -1.06521922770188      2.14218130876686
  H           1.48673041729180     -2.79984770646810      1.75032545926276
  H          -0.13536071015631     -2.55158995453557      1.03598952760446
