22
Coordinates from ORCA-job NEB_product E -45.434485487830
  C           2.82192291150001      0.58249709365477     -1.02365586283821
  C           1.45533188699497      0.05265143599937     -1.35969336624302
  C           2.83609826837147      1.01465556751510      0.44761794874182
  H           3.54739978037009     -0.23372905935039     -1.12940059795038
  C           1.32019250442467     -0.64435805831749     -2.73815582384205
  C           3.30475472407206      1.67832638074187     -2.03818721021561
  C           2.63322736938970      3.00546793843316     -1.79609427770774
  C           1.58687883719584      3.43096965446527     -2.47765597151172
  O           0.49668988236804      0.11292664332993     -0.64164304182150
  N           4.75369549633367      1.71919737305139     -1.98028583254512
  H           3.04577922570145      1.32589764381591     -3.04167057774757
  H           3.08326896645821      3.62118875745939     -1.02880825516023
  H           1.12570995749149      2.83284254213212     -3.24644967876339
  H           1.14379899917233      4.39312951503389     -2.28889892414765
  F           4.08690714015444      1.35001781621221      0.84592597107496
  F           2.06772024011202      2.09488891742471      0.69071992437620
  H           2.48199543021265      0.20453942594687      1.10526943982140
  F           1.00071969606927      0.25829497255026     -3.69432214327866
  F           2.47674693578187     -1.22578897631217     -3.12337871515658
  H           0.52853407593727     -1.40868152836915     -2.71354511411211
  H           5.07609522136470      2.12955607308696     -1.11071280483724
  H           5.12143245052377      2.26990987149601     -2.74597508613557
