22
Coordinates from ORCA-job NEB_reactant E -45.442703931070
  C           2.02831933191150     -0.37689994795933      0.03217826975417
  C           1.75191326151413      0.30329704341254     -1.08776378272333
  C           1.99338256212794      0.25521831941691      1.38351517233803
  H           2.28101718819701     -1.42288977046840      0.01177633099242
  C           1.82967680435954     -0.43947809348225     -2.41155253241226
  C           3.71188310539047      2.83504397868433     -3.30543069179034
  C           2.96423430094079      2.93653339929341     -2.20698066297145
  C           1.54481546119923      2.47956891129603     -2.13343613474988
  O           1.33814593878820      1.57376135258047     -1.03198382141977
  N           4.98309959613225      3.33597843376232     -3.44152128636880
  H           3.30360836786311      2.40801223413883     -4.21104388722979
  H           3.36829143217011      3.36300289513384     -1.30025298274163
  H           1.22486008408683      2.04055212217798     -3.08084933945581
  H           0.87408159629333      3.30839178862147     -1.88490650449323
  F           1.07139573683571     -0.34469496211672      2.18245466725704
  F           3.18427862577338      0.08865324097139      2.02117136468402
  H           1.76766068700163      1.32971866002248      1.35127396478255
  F           0.72261271064021     -0.23676100151876     -3.16592375077820
  F           2.88141414089799     -0.03880830668056     -3.17002852025885
  H           1.93274412629089     -1.52231898300143     -2.25256352929760
  H           5.45638594677661      3.56616064616806     -2.58117438809500
  H           5.56827899480912      2.89305803954739     -4.13015795502228
