21
Coordinates from ORCA-job NEB_reactant E -29.637064378050
  C           1.55788035635540     -0.13241261471099     -0.41508731471009
  C           1.60503922280748     -0.90381194249580     -1.51926933411645
  C           1.49653582202878      1.26222879203168     -0.31802311140904
  H           1.56859937517064     -0.62973221204796      0.54556214370289
  C           1.63342668828141     -2.40498277382859     -1.39345632424441
  C           3.41295165194034      2.14456442286998     -4.15485113451277
  C           2.88908760280137      1.47051292666378     -3.14982577930330
  C           1.53556383802699      0.82542515818843     -3.19619150173190
  O           1.57713471258383     -0.54088151695319     -2.80938653087390
  H           4.38110250034093      2.60813645314956     -4.08125820359625
  H           2.88822974354030      2.27332499600219     -5.08724539932218
  H           3.42699149971351      1.35213331499180     -2.21976415010421
  H           1.15414016820722      0.81494897154664     -4.22084781705267
  H           0.83310733535944      1.37729988514047     -2.55945191431364
  N           1.45230537872157      2.40039866745877     -0.15666403679358
  C           0.21054325501994     -2.96364732661464     -1.33016494709459
  H           2.18329292991129     -2.69377125958629     -0.49730309913637
  H           2.14245515387456     -2.81207421069748     -2.26801569849505
  H          -0.31711888104707     -2.56906555336010     -0.46464804614052
  H           0.23755916238215     -4.04774073652800     -1.25593739760271
  H          -0.34142751602009     -2.69085344122026     -2.22617040314924
