19
Coordinates from ORCA-job P E -35.378252082840
  C          -1.32848762871922      0.33380336831998     -2.35616558359161
  C          -0.04416654228163     -1.68109559586456     -1.01805017030754
  C          -1.46887601797151     -1.89476694980915     -1.41619260345949
  C          -2.09608603475365     -0.92339447741155     -2.05961416042237
  C          -0.62347674081598      0.82015470773696     -1.07506475198840
  C           0.07822845740781     -0.32148034160528     -0.32733220582665
  H          -1.95287207564518     -2.82432042170018     -1.16792039058680
  H          -3.12460470377623     -1.00382099956407     -2.37246349753037
  C          -2.22117085597534      1.40566309288864     -2.95271624438762
  H           0.31164007027620     -2.46779079570730     -0.35306859715773
  H          -0.55465097412681      0.10831132064225     -3.10637362174832
  H           0.58793345828430     -1.68745263082048     -1.91263153052710
  H          -1.36972012495537      1.26375408856334     -0.41081694854607
  H          -0.31487238509737     -0.39671041504213      0.68774781601235
  H           0.09344485904799      1.60120704761521     -1.33406511280384
  Br          1.99854121401671      0.08449328614127     -0.07361535297334
  Br         -3.70418549270715      1.85765854851214     -1.76106148859915
  Br         -1.22750365490729      3.04851848788520     -3.33681719389665
  Br         -2.98415482730029      0.77903867921969     -4.64841836165928
