19
Coordinates from ORCA-job R E -35.289404743570
  C          -1.42205753644496     -0.17223792544222     -2.90127907473977
  C          -0.08271602723908     -2.70327181979363     -1.97066451412061
  C          -1.26514665179817     -2.24845915764278     -1.56723693637154
  C          -1.85843303609177     -0.97623623124998     -1.93002562891557
  C          -0.78257927601813      1.91974187888360      0.31236993285412
  C          -0.20238464466756      0.74075330651625      0.23040766183585
  H          -1.85975565914482     -2.84463913385570     -0.88739486123157
  H          -2.72223187043787     -0.68616130811128     -1.34427055189306
  C          -2.01134566349558      1.12085778193126     -3.27887857479172
  H           0.28541452802154     -3.65983303687532     -1.64385904104090
  H          -0.57682754158366     -0.45151946366869     -3.51708534993565
  H           0.56834798443770     -2.14339988660529     -2.61942714469775
  H          -1.69456125141577      2.04453096683671      0.87147788945612
  H          -0.56593927116842     -0.15755962796070      0.70287746995565
  H          -0.38256289502801      2.79357805198938     -0.17382415308685
  Br          1.39091941045951      0.44622433749868     -0.75323637065309
  Br         -3.40743401565716      1.76988026517095     -2.09744496917329
  Br         -0.61339187974891      2.50814160246552     -3.34828339481887
  Br         -2.79367470297886      0.98560939991323     -5.10694238863150
