20
Coordinates from ORCA-job NEB E -45.551391236780
  C           0.65539136737229     -0.96147271390438     -0.45180556108738
  C          -0.56113470177220     -1.40975179679990      0.09931368637557
  Br          2.25485997814462     -1.47150137918387      0.47439357072276
  H           0.79695029291048     -1.09810975740843     -1.52005169409357
  C          -1.74048121232652     -1.52416209145231     -0.85488758926287
  C           0.50693834307660      0.90328060433363     -0.19539778403305
  C           0.23288569877219      0.98679412771086      1.17765888434430
  C          -0.96210219748061      0.39110349800295      1.68033206754038
  O          -0.81717068092312     -1.17509883170871      1.35127504663383
  C           1.76846655742034      1.55370130281099     -0.72616901024099
  H          -0.32229039394224      1.06474672881824     -0.87929171263474
  H           1.06956732587303      1.10781155136815      1.85198443323493
  H          -1.88503303417715      0.64711297394799      1.16460305096927
  H          -1.07632842322753      0.38856371370577      2.75779410180772
  F          -2.75907328454605     -2.19380989683317     -0.32440924972588
  F          -2.23654791007125     -0.31199075586120     -1.22669572428191
  F          -1.39822254298304     -2.13408829058501     -1.99912890567399
  F           2.72130888945724      1.68944002716553      0.24194506985649
  H           1.53106228176157      2.56520680160248     -1.07779087251648
  H           2.22095364666135      0.98222418427037     -1.54367180793439
