20
Coordinates from ORCA-job NEB_product E -45.584280238470
  C           2.08310666654051      2.30721030102376     -0.82604126641667
  C           0.80461456906723      2.35918114554441     -1.61511584995163
  Br          1.64775444279427      0.91265150598693      0.49744267060442
  H           2.91681295510311      1.91221597214124     -1.41064303805000
  C           0.82204223959901      1.42525622442052     -2.86031100742464
  C           2.43290370208894      3.62040292520412     -0.13010708252301
  C           3.58894054749804      3.42891543426156      0.81101304323934
  C           3.52282890297978      3.65796911297309      2.10774433835658
  O          -0.14876124322760      3.03365651845412     -1.36659833238371
  C           2.78755417807420      4.66433528182589     -1.19991949737572
  H           1.55810365103011      3.97743177003095      0.42377225286905
  H           4.50651779761971      3.08786133343523      0.34982866592642
  H           2.61754312352397      4.00174531249277      2.57938748762376
  H           4.37316636530488      3.51295737103561      2.75011113533949
  F          -0.37064001108057      1.29684409127689     -3.42154776494561
  F           1.65421416429226      1.96330545518351     -3.77502623349029
  F           1.29161088799101      0.20401748891290     -2.59005647885012
  F           3.01906563106532      5.86971342474303     -0.60081883568863
  H           1.96532545665785      4.81405971042362     -1.90814567166344
  H           3.70359597307795      4.39326962062986     -1.73726853519560
