20
Coordinates from ORCA-job NEB_reactant E -45.587044314540
  C           2.57551847317644      0.95318120724802     -0.75637134983567
  C           1.41828369609827      1.61443992756019     -0.72628582464414
  Br          4.04872567016193      1.11335193214241      0.40358168544501
  H           2.74224214146211      0.20818414112280     -1.51627664849058
  C           0.39598522762976      1.30076019510650     -1.81263065616328
  C           2.86022263036546      4.46780569060680     -0.77833917599936
  C           2.76561412332776      4.08714852427260      0.48446564386302
  C           1.66645986703985      3.23375341827810      1.04227652255665
  O           0.88883767501756      2.57171442203322      0.05365143778104
  C           3.95973988115187      5.32413790426736     -1.31614239743060
  H           2.13003996326271      4.17923951296608     -1.52232801595075
  H           3.50548466629210      4.39609430175731      1.20817436521658
  H           0.93653212295534      3.86508163708117      1.56083561506389
  H           2.06572190715532      2.51594297808697      1.76621756058823
  F          -0.82331642801635      1.10905565229242     -1.31071122906455
  F           0.30638140009733      2.31742403807739     -2.68498122191968
  F           0.69918549988751      0.21281816521970     -2.52914385347690
  F           4.81898736119037      5.73942104907333     -0.33361400234290
  H           3.55149100763461      6.22682039050636     -1.78733209218302
  H           4.55986311411004      4.77382491230126     -2.05234636301301
