21
Coordinates from ORCA-job NEB E -44.058214597440
  C           0.46810768516417      0.12891151258753     -0.06658149048985
  C          -0.28084511569448     -0.54892303794795      0.98248635547772
  O           0.99651928615872      1.32993950940320      0.31219990735830
  H           1.21544955020617     -0.54373247352485     -0.51230739455938
  C          -0.55097155180025     -0.04909430115129      2.25944296788270
  C          -0.63138538415634      0.27850857028515     -1.36624973828898
  C          -1.53970138866146     -0.83995554519068     -1.37245740827314
  C          -0.98982013472958     -2.05692152115568     -0.74708505968310
  O          -0.87054261554236     -1.69736427032107      0.65365916472276
  F          -1.25712644473784      1.48361566287517     -1.26593386081325
  H           0.05114734023595      0.34462146344438     -2.22070487460794
  H          -2.56304594676597     -0.60547271243444     -1.10865766623934
  H          -0.01424746275479     -2.35959976701202     -1.14013690887327
  H          -1.67393769646979     -2.90316420875059     -0.75040390354362
  C           1.93108383069367      1.91012826187337     -0.57340962826161
  H           1.44253049584645      2.27735815216089     -1.48076619718696
  H           2.71916762483097      1.19737497049111     -0.83753087446449
  H           2.36160372770370      2.75019448476632     -0.03366692270010
  Br         -0.45713827136460      1.76937212918505      2.68896550492845
  Br         -1.88146722441353     -0.97501830011991      3.21944596445931
  Br          1.52461969625116     -0.89077857946369      3.35969206315579
