21
Coordinates from ORCA-job NEB_reactant E -44.110159118000
  C           1.19283454303649     -0.41017848188004     -0.17078778548615
  C           0.94598638956135     -1.67609665839302      0.18305009361110
  O           0.60882785203000      0.22408758149566     -1.21806028038020
  H           1.89238698959565      0.18124506608331      0.40720453888739
  C           1.53111342349349     -2.32037474676866      1.38739105699395
  C           1.65861770159910     -2.55089551438263     -2.80022095336786
  C           0.41215034104109     -2.12016764306716     -2.77800739351446
  C          -0.51906010571664     -2.29117096884453     -1.61811098158699
  O           0.11958233357110     -2.60248636444603     -0.39808328164113
  F           2.44743523709668     -2.34445612801581     -3.86652409312568
  H           2.17397268469303     -3.09229224386410     -2.02047775474382
  H           0.00674641763349     -1.59955473405814     -3.63173240859179
  H          -1.18347764255050     -3.14512361942670     -1.79276278930452
  H          -1.13130516226263     -1.38972868249967     -1.50539423229237
  C           1.27919174466678      1.38418196323895     -1.66477896613049
  H           0.62445199015423      1.84605422518464     -2.40044904632957
  H           2.23325963419326      1.12808997135889     -2.13474672484237
  H           1.45620646317452      2.08106088177835     -0.84023750723251
  Br          2.81061957306458     -1.26672574900059      2.36201578378491
  Br          0.07987100948464     -2.80622967525408      2.62457800944561
  Br          2.41088858244030     -3.98643847923866      0.85193471584694
