21
Coordinates from ORCA-job NEB_product E -44.111812567760
  C           1.86518189208351     -1.12970610023420     -1.13228955239954
  C           1.79521529511195     -2.22292526818222     -0.08897649232524
  O           1.24943538519271      0.02547407149308     -0.64826444048125
  H           2.93741396106355     -0.94782005493417     -1.33534835048387
  C           1.30089546157453     -1.81040741196978      1.27678088275939
  C           1.24772045088843     -1.69768215080594     -2.44320637751360
  C          -0.24728704850733     -1.71379216212956     -2.37310926245132
  C          -0.94095644431276     -2.79970960795564     -2.09027622067329
  O           2.10101456780065     -3.36169033950225     -0.30928516364887
  F           1.67599744652145     -0.91940369729550     -3.49761485502321
  H           1.66237271388474     -2.69969880873202     -2.60835015099340
  H          -0.72571157455497     -0.75999932957142     -2.54127029856677
  H          -0.46482643003728     -3.75214079907315     -1.92073030306361
  H          -2.01319922082924     -2.77550143672243     -2.01052051576867
  C           1.56755618770406      1.22246038389497     -1.33436255546031
  H           1.21306777728513      1.20339589569744     -2.36640112009713
  H           2.64773967975111      1.39777575231269     -1.32316199705246
  H           1.06264521749384      2.01428106440589     -0.78599525531690
  Br          2.37910768890498     -0.36841241155208      1.97058939614248
  Br         -0.54947326815510     -1.26632910836520      1.14228304658341
  Br          1.42039026113601     -3.31786848077849      2.47100958583416
