18
Coordinates from ORCA-job NEB_product E -34.465651601830
  C           3.13510036456720      0.65323619830984     -0.78719392993358
  C           1.65863042157538      0.46060379613558     -1.02727517400102
  O           3.49456112664091      0.18872052290494      0.47768484822113
  H           3.71123577368613      0.08165295019746     -1.52508665763879
  C           1.16226643668159      0.61466508986052     -2.48004217085167
  C           3.45951626756888      2.16549970801010     -0.97738901783039
  C           2.69817785408680      3.01714223847655     -0.01025763811421
  C           1.81423215359317      3.93109088560921     -0.36187880157360
  O           0.87793434657648      0.23720804702083     -0.14029284465622
  H           4.53089804093412      2.27270105879405     -0.79505752420516
  H           3.24547606631856      2.45768600336304     -2.00512484494098
  H           2.92028286399387      2.83632880085295      1.03324093017843
  H           1.57814019486683      4.12622638295691     -1.39475318457401
  H           1.29054420684442      4.52299345348066      0.36859590423374
  H           2.72084492047148      0.25975259829261      1.05632121950332
  F           0.79311422639017      1.89500248010747     -2.71320362602399
  F           2.13581778318670      0.32844648569567     -3.37401451074844
  H           0.29612695201732     -0.03465670006839     -2.67917297704456
