18
Coordinates from ORCA-job NEB_reactant E -34.451004440260
  C           1.79057070188733      0.14871231024292     -0.15459916114902
  C           1.45591331548336      0.81913940116230     -1.26267915510411
  O           2.16262842233108      0.71957506828630      1.03547851053686
  H           1.76620678658787     -0.93168303350078     -0.18351653258042
  C           1.03600521541364      0.03232906321199     -2.48195497378715
  C           4.23476008066640      4.14613665262428     -0.82761692877118
  C           3.49530835078743      3.05879312634271     -0.72825950796618
  C           1.99983406413762      3.06633274644645     -0.61568970219202
  O           1.38703914711924      2.15092299391163     -1.51087968310087
  H           5.30821901749352      4.09972528339884     -0.89089701431639
  H           3.79653316623482      5.13035649651830     -0.84039443677745
  H           3.94861065661677      2.07716437025586     -0.72237229287728
  H           1.59709804131771      4.04048381351530     -0.90249994816963
  H           1.70495706315880      2.84248683625864      0.41587210473943
  H           2.51866915108390      0.04680235839600      1.62357116841295
  F          -0.20309745969750      0.38417576633560     -2.89707952507502
  F           1.86566457455382      0.27486218832189     -3.52669710811675
  H           1.03247970482420     -1.05431544172823     -2.30608581370578
