21
Coordinates from ORCA-job NEB_reactant E -36.975409195430
  C           2.39430770912394      1.01719693849922     -0.60864248463186
  C           1.33584606667777      1.73142084527703     -0.23752824612905
  Br          3.99367415347938      0.67986861737395      0.33758524496957
  H           2.38156251807946      0.50346552186366     -1.55450323804012
  C           0.12873351902440      1.78565755511591     -1.15469644033899
  C           4.25938521309270      4.02541357833293      0.95102712651770
  C           2.93477675876307      3.99052369960248      0.87435705487459
  C           2.08567061962269      3.04224268306970      1.66010202763743
  O           1.05231307985650      2.46212319828589      0.86493134807325
  O           4.99930303836505      4.91235087371821      0.24705315857041
  H           4.80579449935681      3.34760998098041      1.59891158845975
  H           2.41069154690811      4.67537054008101      0.22528053185869
  H           1.51932033495020      3.58049735296592      2.42868819933116
  H           2.69310425090473      2.27693230584292      2.15143555840258
  F           0.18110180002741      0.85478518851505     -2.15161719665146
  H           0.06104980856928      2.77046665106919     -1.63166728877557
  H          -0.77790440113157      1.59880654232354     -0.56977505757137
  C           6.39688764554008      4.77163681182949      0.37177543930768
  H           6.83900014629291      5.55056196277204     -0.24636856390276
  H           6.72925018894689      3.79110147400279      0.01673614569398
  H           6.71813150355018      4.90466767847868      1.40991509234441
