21
Coordinates from ORCA-job NEB_product E -36.975151550010
  C           2.77001755851006      1.58484249826596      0.04136934052416
  C           1.39276927300407      2.03970626665659     -0.41554756175263
  Br          2.56402168701732      0.24111112001197      1.42252881230774
  H           3.32777429317732      1.12841966503951     -0.77928696383652
  C           1.42281467877763      2.63647845260302     -1.80994548890655
  C           3.59203140299243      2.76679704999304      0.60279226247246
  C           2.78788010709156      3.55020632070399      1.60500500216691
  C           2.91808333696608      3.41249222491833      2.91021817893738
  O           0.41222386447626      1.94849056306904      0.26164180628688
  O           3.97991935882563      3.54392166071987     -0.51559201367177
  H           4.49094816189919      2.35164989303371      1.08970497074583
  H           2.06417025727031      4.22908363770925      1.17449305931229
  H           2.30313376378463      3.96404166406085      3.59918308669017
  H           3.63041198853577      2.72837087008038      3.34212444326311
  F           0.23168804288018      3.21911015683860     -2.12746584297162
  H           1.60998211243417      1.84634269862807     -2.54747140646170
  H           2.20898115843288      3.39759485154261     -1.87366833671819
  C           4.93561699899716      4.53288368965163     -0.20200317552313
  H           5.15501842952484      5.04770973502076     -1.13460035864858
  H           5.85126697824343      4.07902061632568      0.19298355232291
  H           4.54674654715911      5.24542636512716      0.53193663346085
