22
Coordinates from ORCA-job P E -35.608332007290
  C          -1.24274137086638      0.57699929718119     -2.25639145930453
  C          -0.86612338578838     -1.88507886156600     -0.65507697268318
  C          -1.55148553846166     -1.86011245941065     -1.98483623475424
  C          -1.72860076350325     -0.76543482520108     -2.70372219497983
  C          -1.03989963119065      0.61094919656493     -0.73815209068794
  C          -0.14431150514146     -0.56582361887975     -0.34345943338432
  H          -1.91075419480063     -2.81298625649996     -2.34571184046535
  H          -2.23090734529863     -0.79689003525454     -3.65888380013473
  N          -2.22566411858311      1.63370306259922     -2.59049285004493
  H          -1.60701242604645     -2.08127680410585      0.12550954865026
  H          -0.29861260222444      0.84445796286746     -2.74430449489517
  H          -0.15286588361061     -2.71201066191862     -0.63230615081673
  H          -2.00299476456924      0.51422752244428     -0.23392823582147
  H           0.06510498227939     -0.51570778426004      0.73832003054266
  H          -0.57004709989481      1.55166922928422     -0.44929098292062
  O           1.06853172242948     -0.41855092061235     -1.05682035049370
  O          -1.79254406131747      2.74691914767378     -2.76860081493896
  O          -3.39190798505645      1.32471901977797     -2.62529439096345
  C           2.16271967737548     -1.11931188381449     -0.52558359449241
  H           3.02816430395118     -0.81870499349846     -1.11267872497020
  H           2.03938707006515     -2.20530204633801     -0.60370104588005
  H           2.32806492025292     -0.85803328703326      0.52705608343886
