22
Coordinates from ORCA-job R E -35.524978550490
  C          -1.76037557813280     -0.23417629176957     -2.35241331701839
  C           0.09936843569195     -2.04483203085015     -3.87642166494418
  C          -0.62198811258279     -2.39053965137506     -2.81095235379248
  C          -1.42683345037978     -1.48971764920584     -2.02347675167140
  C           0.82307075546454      1.25512685798702     -1.43107313953661
  C           0.35243804440191      0.82257692509036     -0.27122365930164
  H          -0.60339368588174     -3.41567393759126     -2.46687852509682
  H          -1.79870697758105     -1.86940437655434     -1.07999323083566
  N          -2.52646184624347      0.57450573459306     -1.47518523626246
  H           0.69150903251365     -2.76795699678139     -4.40966696319007
  H          -1.49244783824011      0.26868402020719     -3.26702550712984
  H           0.13696959463691     -1.03327769106118     -4.24195311200104
  H           0.78040784639404      2.29579616724333     -1.68687760458794
  H          -0.10004415474539      1.49548139646406      0.44966467491249
  H           1.27475016524054      0.57717896629931     -2.13265906059781
  O           0.39240377586240     -0.48775297502795      0.07972014089859
  O          -2.80654548614935      1.69253668576372     -1.86074131670363
  O          -2.85371424291979      0.12178802113487     -0.39305951308683
  C          -0.20737318841676     -0.80487946206268      1.31913556037364
  H           0.28626389415750     -0.27955947228503      2.14272683292555
  H          -0.08293861654412     -1.87807550179291      1.45235675015179
  H          -1.27246836654629     -0.55437873842556      1.31538699649474
