20
Coordinates from ORCA-job NEB E -32.894780566620
  C           1.07445351311055     -0.00474102179207      0.59207074610912
  C           0.50161006373195     -0.87187817839827      1.51399801110156
  C           0.88925638942092      1.47453983906733      0.82886294934873
  H           2.06213191498471     -0.25787904892005      0.22150082651001
  Br          1.21222391485227     -2.70291880549092      1.51985120742276
  C          -0.15666871436795     -0.39359728915197     -0.94210915500446
  C          -1.38900417320581     -0.15918784663895     -0.34427804981971
  C          -1.79776885871325     -0.98954111985229      0.73509660198417
  O          -0.69041187658324     -0.74320564023346      1.92959863790671
  C           0.30394770051247      0.44666370756374     -2.09843623626531
  H           0.15813807997106     -1.43017433579153     -1.02533215564163
  H          -1.82692269158507      0.82548768992732     -0.42706195558234
  H          -1.67740375400400     -2.06163148063495      0.59792408536573
  H          -2.72251415404183     -0.73197850668772      1.23526674122509
  F           1.92414759035416      1.93505326744146      1.60999147880817
  H          -0.03671623683892      1.68057443087300      1.37354794924507
  H           0.93299720844039      2.05034054831116     -0.09895738373816
  H          -0.09799936675827      1.45533900117905     -2.04733368146402
  H          -0.05211983070769     -0.01209556126773     -3.02061923443763
  H           1.38862328142755      0.49083035049685     -2.15358138307387
