20
Coordinates from ORCA-job NEB_reactant E -32.918078750710
  C           1.82120095206732     -0.03451534434334     -0.06963030325931
  C           0.87460593871544     -0.72031949151775     -0.70028896405242
  C           2.37207316649537      1.24761074649342     -0.60408943330404
  H           2.23344907596961     -0.39217912931536      0.85905270352026
  Br          0.25447665206967     -2.36853839749921      0.08563961597291
  C          -0.24442978960435     -0.72615466798261     -5.18876636572360
  C          -0.67563292050770     -0.49626073292895     -3.95999014313821
  C          -0.20925393286126     -1.24694455982612     -2.75489880071702
  O           0.24842634207242     -0.29213817530948     -1.79339745513886
  C          -0.71531788802223      0.00139114699703     -6.40008154740093
  H           0.49054282300590     -1.50138789821962     -5.36642657253935
  H          -1.40335281535683      0.27676819381465     -3.75851249022641
  H           0.60070315051140     -1.93933234393755     -3.01355836484448
  H          -1.04132540256995     -1.82017102381684     -2.32014916767627
  F           3.74595757194651      1.24005825130979     -0.53692336161381
  H           2.04106809185842      2.10389378632221     -0.00300242147362
  H           2.09521137277690      1.39558126897930     -1.65214564296361
  H          -1.44369840874809      0.76495413289321     -6.14113908902595
  H          -1.16890869356520     -0.69722261758967     -7.10238280975661
  H           0.12810471374665      0.47140685547687     -6.90440938663866
