23
Coordinates from ORCA-job NEB_product E -62.082472925600
  C           2.05554094437907     -1.29086253916714     -1.87317633167408
  C           0.63642128918733     -1.83310995776339     -1.80700248782701
  C           2.06807216702059      0.07972043878286     -1.15994315558945
  H           2.75201228658707     -1.93885439907035     -1.33005194354323
  C           0.42821316290556     -2.85146372346095     -0.64602967571253
  C           2.48710707608084     -1.15011908746991     -3.35052425183318
  C           3.76538793496856     -0.37216721007697     -3.51842290373646
  C           3.84207912833092      0.73901902933287     -4.22383794242383
  O          -0.26244042311837     -1.50552612304503     -2.51533517730616
  C           2.69045266359854     -2.55211781311804     -3.92790507973199
  H           1.67598402841096     -0.67517653074723     -3.91415760397242
  H           4.63036642385775     -0.79066577493577     -3.02385823642241
  H           2.98240887388290      1.16599371136852     -4.71266533624854
  H           4.77117677997312      1.26971891838290     -4.32906757945828
  F           3.33580066127073      0.47569741082478     -0.93215636952380
  F           1.49369020153291      1.02642910542119     -1.92343440518709
  H           1.54826381075701      0.05537385111442     -0.18918474609775
  F          -0.79505136277560     -3.35268071132886     -0.61554605565517
  F           1.29925620144410     -3.86125686850681     -0.71877892222526
  F           0.65066475980993     -2.23317848693081      0.53161891498749
  F           1.61286001295624     -3.33879218893468     -3.75781531664943
  F           2.94193226029692     -2.51733640068194     -5.23661519309356
  F           3.71230111864288     -3.19334464998967     -3.34501020107584
