21
Coordinates from ORCA-job NEB_product E -33.701247812440
  C           2.76168643524519     -1.38832279613407      1.02123540853071
  C           2.65090302769224      0.06659095532811      1.39254211482666
  C           1.80636165617660     -1.70489678303653     -0.13651106316933
  H           3.79111198335890     -1.60912661916942      0.72664818822222
  Cl          4.22500416346562      0.83270249587959      1.61815091918281
  C           2.41437270779036     -2.24853338318068      2.26856872378539
  C           0.98275348151314     -2.09753378953763      2.71226207984701
  C           0.16530035685890     -3.11978030625268      2.87634156543946
  O           1.65698177916199      0.69151916537364      1.55679630494674
  C           3.27629487867432     -1.88606019710105      3.37463645211363
  H           2.61204772445557     -3.29900342521985      2.02105326731129
  H           0.66012427715078     -1.08522264817968      2.90835267021197
  H          -0.84952354500983     -2.98166229394996      3.20578637624278
  H           0.47311485635143     -4.13692088620262      2.69263716718074
  C           2.24437723417864     -1.01219781053315     -1.42056397683457
  H           0.79993067810147     -1.38175901670746      0.13407439652634
  H           1.78599614074193     -2.78592774645154     -0.28960434712973
  H           2.23566797733458      0.06781736410640     -1.29518317841135
  H           1.56946687107013     -1.26792365115892     -2.23319766103478
  H           3.25006733761061     -1.31851671330416     -1.70048721516463
  N           3.94235997807741     -1.60054191456834      4.25766180737659
