21
Coordinates from ORCA-job NEB_reactant E -33.680107691320
  C           1.36786470183975     -0.21903166104969     -0.43151555518312
  C           1.21280343497560     -0.32914822757466      0.88084690989622
  C           2.26687485608336     -1.10555887656034     -1.23587795335078
  H           0.86195083679171      0.57593193508645     -0.95513686476791
  Cl          0.13801222620332      0.76825832722969      1.72701698470273
  C           1.76916972836055     -3.86779259996902      4.02968648138368
  C           2.14637474444990     -2.75596445640169      3.40153424626629
  C           1.20314137525459     -1.81707198193607      2.73141184999471
  O           1.88588808716734     -1.21116178737581      1.64295117672253
  C           2.68625165974484     -4.71533675511243      4.68086448722980
  H           0.73263266540109     -4.17672733096973      4.08019797769274
  H           3.18726502645610     -2.46771837726426      3.35642263190643
  H           0.89155286206997     -1.04093931987521      3.44842578011817
  H           0.30181802444847     -2.33602569046304      2.37776857272184
  C           3.47600444665582     -0.32831913769001     -1.75583045537616
  H           1.70404464379103     -1.50208607151386     -2.08463773092045
  H           2.60335164971031     -1.93820953076394     -0.61841413565108
  H           3.15580293926261      0.50796502396271     -2.37291762941582
  H           4.11143141179738     -0.97676510952993     -2.35376088592805
  H           4.05894225966397      0.05918278011174     -0.92427230618253
  N           3.42022241987229     -5.42018115234087      5.20893641814077
