20
Coordinates from ORCA-job NEB E -33.024667327880
  C          -1.22278011646597     -0.11606731955481     -2.08283714716047
  C          -1.80482644342113      0.39239734880979     -0.99614959159318
  N          -0.73907189311416     -1.41012344583592     -2.15763541349532
  H          -1.06294876278976      0.50237843893933     -2.95164171594893
  Br         -2.25872397352156      2.26771207517195     -0.98558255174851
  C           0.80469394353371      1.00386386828700      1.03215978082099
  C           0.01546971571701     -0.05067498999174      1.21363153231338
  C          -1.46776794072519      0.09653471169613      1.31876763608382
  O          -2.13293196571222     -0.30551212850446      0.10972233892310
  O           2.13669566987762      1.09160818411124      0.87320894010039
  H           0.38834908977013      2.00490133139204      1.02102803885702
  H           0.37954274031466     -1.06646507521396      1.21372773289721
  H          -1.73823403675095      1.13556395176203      1.54352167642474
  H          -1.88802095886840     -0.56182876384168      2.08159529163168
  H          -0.81726999572045     -1.84492115671371     -3.06425415901788
  H          -1.06012978522706     -2.00251558105611     -1.40441378362432
  C           2.94556911208458     -0.06691962834060      0.82115217904569
  H           3.69273297238430      0.00373013453223      1.61462057994350
  H           3.45205815517929     -0.08796533126160     -0.14641895641541
  H           2.37759447345555     -0.98569662438717      0.94579759196250
