20
Coordinates from ORCA-job NEB_reactant E -33.026375988530
  C           1.43518322420501     -0.24856952834033     -0.12031089415366
  C           2.01750694316600      0.56789069991393      0.76011751413923
  N           0.33958661311242     -1.03656621153178      0.17655084765623
  H           1.84900403842594     -0.36077088859194     -1.10998049509876
  Br          3.62698065849029      1.48917737437850      0.21269547865655
  C           3.94145497747973      1.44608590652962      4.12185301213179
  C           3.59669964849934      0.44546492474099      3.31643569459076
  C           2.16412450393881      0.08870587627243      3.08258539246463
  O           1.56523419716100      0.83528910917400      2.00059348601476
  O           5.16979999600075      1.92005180889609      4.39479185345485
  H           3.19673609025465      1.99849865120680      4.68125593110515
  H           4.32961005602844     -0.10529531790827      2.74824165587599
  H           1.54743728772076      0.35371112716239      3.94381377176379
  H           2.06084227375817     -0.98195461411367      2.86668713180377
  H          -0.27578777908675     -1.22801156279667     -0.59851022483408
  H          -0.14922864307937     -0.76113957127405      1.01707982357708
  C           6.25508931599686      1.37176426360472      3.67863703773766
  H           7.13510050635698      1.92869567881865      3.99434600387822
  H           6.11249511745411      1.48870719384970      2.60055722182897
  H           6.38873097411685      0.31166508000888      3.91515975740707
