22
Coordinates from ORCA-job NEB_reactant E -39.623115520150
  C           2.18541391815670      0.29977398626840     -0.50904924970446
  C           1.28452667738690      0.34703528780549     -1.51653345542860
  N           2.42969906080025      1.20133865038680      0.54564132409893
  H           2.86947996440778     -0.53539622996190     -0.48669204882341
  C           1.19642524996393     -0.84194613227466     -2.44433618895536
  C           2.76027653247709      2.98419999157737     -2.37167331332615
  C           1.74774770345040      3.38545523508687     -1.62214653996583
  C           0.46876468929835      2.62891578591462     -1.41862887650555
  O           0.45972357930566      1.30457889705565     -1.92526249032065
  Cl          4.19894989658132      3.90433497294655     -2.55577076649008
  H           2.77255514381136      2.05875366673787     -2.92576994108949
  H           1.79209584246965      4.32286913657582     -1.08873031802215
  H          -0.34113688100482      3.12714998515437     -1.96310198741489
  H           0.22936493672259      2.63463966511301     -0.34740146305429
  O           3.56521473298654      1.23800673522241      0.98002859000698
  O           1.50208876050098      1.84704448947145      1.01053097612757
  C           2.12415368474503     -0.67206377343227     -3.64899076719906
  H           0.16676422686641     -0.91575651128227     -2.79527379382036
  H           1.45399558573325     -1.75239772124993     -1.90555751697156
  H           1.84188422977459      0.20556504351757     -4.22523105589940
  H           2.05173947552307     -1.54267444024943     -4.29507125950609
  H           3.15727299004299     -0.56852672038380     -3.32557985773609
