22
Coordinates from ORCA-job NEB_product E -39.619615781680
  C           1.16324147405470      0.97353347417943     -1.43761383570918
  C           1.10951829356958      0.09617835243208     -2.72114790618969
  N           2.00678182616523      0.40719142159134     -0.36742458190897
  H           0.13896588728509      0.98021307975174     -1.03969906746074
  C           1.82164198993933     -1.22390480121490     -2.69005709462803
  C           1.53934332581988      2.41448953140123     -1.81512150753044
  C           1.63607297090966      3.32102409887213     -0.63299424742000
  C           0.87515170685409      4.38849719263841     -0.47713293891239
  O           0.49756721789023      0.50753136959442     -3.66463595856976
  Cl          3.11240627768724      2.44295971395892     -2.69812208611010
  H           0.79154086135471      2.76877495697427     -2.53003257783112
  H           2.40079793057816      3.06942803831261      0.08838328369071
  H           0.12212700162088      4.66042205065319     -1.19829784073922
  H           0.97474657089442      5.03056239550427      0.38009324978334
  O           1.41775959244713     -0.19556173357205      0.50162509293160
  O           3.19950431396019      0.56107587866007     -0.41905839418416
  C           3.28427087062011     -1.03483155653001     -3.11769216058960
  H           1.32805159330221     -1.88473280489213     -3.40524296943079
  H           1.77628082570967     -1.67589956496207     -1.69863955674582
  H           3.32995134813987     -0.54888937361437     -4.08891118241355
  H           3.76501194842166     -2.00647259815039     -3.19035931339006
  H           3.82996617277594     -0.43008912158819     -2.39841840664205
