20
Coordinates from ORCA-job NEB E -44.226347740060
  C           0.77237307051512     -0.94375187849962     -0.18168753448452
  C           1.29943126243093     -0.34985360032473     -1.34489049803945
  C          -0.44742643826158     -1.82499928448350     -0.37110063596539
  H           1.49740863449420     -1.41812188711866      0.47466544837888
  H           2.36871650732185     -0.13165909663749     -1.38441613668806
  C           0.15137315455638      0.61943367413095      0.69678503007147
  C          -0.71148817349525      1.19980783949172     -0.25093251242385
  C          -0.16036103203387      1.58717989990044     -1.50394346990801
  O           0.51581301577806      0.27392417244560     -2.16136181815250
  C          -0.38725028961128      0.35929510373892      2.07899326756221
  H           1.13267060011641      1.08451145743851      0.79316011141671
  H          -1.76854636932762      0.98239545649377     -0.20266195853625
  H           0.70449706055898      2.24479061944156     -1.46763980166478
  H          -0.87445413038103      1.89280429211317     -2.25912371144827
  F          -0.14305137288985     -2.81844492266986     -1.23980256801282
  F          -0.77564786591275     -2.44644164600118      0.78356338367321
  H          -1.33627594947762     -1.30582840091564     -0.75894200719650
  Br          0.72957769028882     -0.85243790851079      3.11911262266259
  Br         -0.34271768487577      2.10315870041419      3.02191235456242
  Br         -2.22464168979412     -0.25576259044735      2.15831043419290
