21
Coordinates from ORCA-job NEB E -51.262025427820
  C           0.78893034544419     -0.17329444985377      0.36434252118433
  C          -0.28527519458265     -1.06926197354857      0.68363673140450
  N           0.68709180084671      0.93790159672759      1.34618344805619
  H           1.78377545679311     -0.61750041802350      0.38127344805069
  C          -0.06137782459392     -2.53728388956447      0.84617913813532
  C           0.41067016970294      0.62700970961731     -1.03088871234055
  C          -0.84319376075938      1.26623084978008     -0.66287024753167
  C          -1.94253435021260      0.33316569578825     -0.35659440156824
  O          -1.55718449679043     -0.63498301810119      0.66624278952827
  N           1.47299535144646      1.57874635747994     -1.39604892745276
  H           0.36672825781517     -0.15274139876497     -1.79336740750428
  H          -1.01080497238188      2.31940337327107     -0.80453044213756
  H          -2.23525409111970     -0.25577280506885     -1.23121005917635
  H          -2.81098260779983      0.84348835089252      0.05784382406675
  O           1.56088536430475      1.09377889030600      2.16010782505432
  O          -0.38275217904879      1.54436823165104      1.26403948350492
  F           0.34217598419347     -3.09212332765509     -0.34163800406382
  F           0.94135301147370     -2.79381022262577      1.71383075085795
  H          -0.96807727669237     -3.06320006254550      1.17412162991919
  O           1.55734212268776      2.57676737948358     -0.72138786006005
  O           2.18548888927328      1.26911113075430     -2.31926552792714
