21
Coordinates from ORCA-job NEB_reactant E -51.296008591400
  C           2.25468054440723      0.22603225746371     -0.54054759138059
  C           1.57328268573534     -0.47998391140484     -1.46580371847091
  N           2.07606464106060      1.57577612284482     -0.12857955958693
  H           3.08427011549805     -0.24381931331267     -0.03375274847012
  C           1.98220694967671     -1.94739958855527     -1.64858449811962
  C           2.51327244949882      1.54896379199887     -3.70635596927798
  C           1.29764594992987      1.95077611708490     -3.35627932511844
  C           0.24781828132175      1.14206637406127     -2.67976402670148
  O           0.64119205602180     -0.18034263228296     -2.35344344542506
  N           3.41951954796858      2.45428549061327     -4.36430384004103
  H           2.93121783732680      0.56294028397106     -3.56857621417882
  H           1.01097966740943      2.97294105640641     -3.57494156574827
  H          -0.60157810747785      1.01128006158490     -3.35895241352089
  H          -0.09832413198982      1.68552540748063     -1.78817505149029
  O           3.05917636570775      2.14963479755508      0.27874042857964
  O           0.95732914125989      2.05586641227330     -0.16677795166161
  F           0.90736525238908     -2.71017607958256     -1.90208815088964
  F           2.79631120327278     -2.04010639291282     -2.72639161184880
  H           2.51302450225642     -2.36414798155584     -0.78060349475816
  O           3.03372940806204      3.57548619054411     -4.60399348815461
  O           4.51361564066474      2.01410153572462     -4.63202576373640
