21
Coordinates from ORCA-job NEB_product E -51.292447690100
  C           2.70782615499039      0.70969657762822     -1.54219506955886
  C           1.75787031946778     -0.36594402732017     -1.03539514669613
  N           2.78894239878614      1.81066011403823     -0.51279257838400
  H           3.72414194921409      0.30327233137664     -1.63629192552065
  C           1.96272082396944     -1.74995992160763     -1.70230038133544
  C           2.21674179202043      1.22319295286209     -2.90585082096043
  C           0.81003478705893      1.74800318820625     -2.90760459214486
  C          -0.16524822453284      1.17251641417578     -3.58479872891986
  O           0.88930707139562     -0.18647894712570     -0.23973287455077
  N           3.17318959626139      2.29619462326112     -3.38943394238420
  H           2.30649982605010      0.41210889998166     -3.64048167654131
  H           0.64411287242300      2.64311239123694     -2.32700454176395
  H          -0.01180649855418      0.28255791114914     -4.17343644721310
  H          -1.16345339942240      1.57122891600922     -3.56958925337288
  O           3.17066485592467      1.46488889462474      0.56867895452439
  O           2.48100179946373      2.91679512941473     -0.85683555581768
  F           1.32668692155784     -1.75485355116965     -2.89829877114784
  F           3.26535743615841     -1.97852708597443     -1.96265569835668
  H           1.56201030443966     -2.56643979235803     -1.08551306661443
  O           4.30669472751906      2.21967185023985     -2.99348498133121
  O           2.72860448580873      3.09080313135099     -4.16408290191011
