20
Coordinates from ORCA-job NEB_product E -48.620401537200
  C           1.72842517789747     -1.01692818877818      2.02724540267300
  C           2.34656323044120     -2.19849593307052      1.22117298095503
  C           1.77833646565781      0.31041784605968      1.27564606594594
  H           2.35580046245706     -0.91252369567644      2.92376878123142
  O           1.82250418610041     -2.44402828943125      0.03226802223091
  C           0.31782335012075     -1.40565623256365      2.49006807251842
  C           0.26294292984903     -2.85810203802016      2.88616513475587
  C          -0.61165885077834     -3.71162207552436      2.38954987304629
  O           3.21591944655703     -2.86506741102087      1.68976470876741
  N          -0.04986505383679     -0.63607550517891      3.72868088555748
  H          -0.44844400667886     -1.17634099671992      1.74398631284014
  H           0.99208840977214     -3.15449774188804      3.62652760148092
  H          -1.34412168979497     -3.42135126703258      1.65439590882436
  H          -0.62288172807305     -4.74146161244409      2.69821573159700
  Cl          0.62977034316179      0.35838385924977     -0.11136298710875
  Cl          1.35120927024764      1.66997680071703      2.35725973309104
  Cl          3.42520672234469      0.56357102658174      0.64001516902530
  H           1.17658420033992     -1.78106962213845     -0.27023666061334
  O          -1.17435806269143     -0.21650178502926      3.77624466497062
  O           0.78595519690648     -0.54682713809152      4.58742459821094
