20
Coordinates from ORCA-job NEB_reactant E -48.601988411230
  C           1.33727370916777     -0.59045829648195      0.15477164260869
  C           2.04503036301528     -1.40767491047458      0.96230292837493
  C           1.87019151327499     -0.04829418874466     -1.10657581345500
  H           0.33343675162055     -0.29946762260876      0.39928378582039
  O           3.29218567174659     -1.82097953141516      0.74485587392782
  C          -0.86551280112678     -2.13069850689587      4.72121323854610
  C           0.07158752452202     -2.40765307793536      3.82398549451774
  C           0.29570346580593     -1.65079759629691      2.55970906433812
  O           1.60496994846642     -1.93418885464154      2.11396730226864
  N          -1.02299022853150     -2.93662056333519      5.90113332351221
  H          -1.57039507539675     -1.31520333479823      4.66333342145863
  H           0.73547146533534     -3.24752544361761      3.99061977494812
  H           0.16295317386842     -0.57245420070749      2.71821855473623
  H          -0.43883765722630     -1.98305786115285      1.80927275856861
  Cl          2.32050013127452     -1.36168198850457     -2.27445251030049
  Cl          0.68854845638120      0.99679038526648     -1.89723092897454
  Cl          3.38274813339920      0.91994364111094     -0.84790840705977
  H           3.65511437618146     -1.44398468159734     -0.07048394262534
  O          -0.29680390245605     -3.89292085637019      6.04501156792404
  O          -1.88737501932231     -2.58957251079916      6.67467287086485
