17
Coordinates from ORCA-job NEB E -38.276573813660
  C           0.00681956941361     -1.46661208641018      0.37121435725264
  C          -1.34233510438195     -1.25052796647956      0.56922646622189
  H           0.65993093690799     -1.31465832979774      1.21425380581594
  H           0.29364605711648     -2.25825691629881     -0.30396960722287
  F          -2.18520470510585     -1.77335710514331     -0.38048327711177
  C           0.40900642107284      0.26680394138393     -0.55717592218159
  C          -0.14261850940333      1.20613527818514      0.30696865995648
  C          -1.54682979354670      1.16568585388235      0.52846864752006
  O          -1.81879173450319     -0.28886917687447      1.24582986661358
  C           1.89380417911337      0.26339322274006     -0.78804218758052
  H          -0.13762999874251      0.02234524503235     -1.46258681726346
  H           0.48394137057954      1.63453698049163      1.07463890871169
  H          -2.17963520039453      1.07368379092660     -0.34970313695368
  H          -1.94493912211255      1.84987845440142      1.26610123419362
  Cl          2.32665138727776      1.72566416262302     -1.73131084454622
  Cl          2.81553827543206      0.29649197029958      0.72640876117764
  Cl          2.40864597127695     -1.15233731896201     -1.72983891460344
