17
Coordinates from ORCA-job NEB_reactant E -38.301780089150
  C           2.58317732563647      0.39356301160273     -0.32450856981010
  C           1.48944004620879      0.43259504134799     -1.06305255300656
  H           3.31032316576024      1.17972448347142     -0.32958420528773
  H           2.76753111157631     -0.46018237960142      0.29752847921039
  F           0.61324265995872     -0.58303300034604     -1.04298204859532
  C           4.15017755025028      3.09979706045402     -2.42781994755366
  C           3.07180050395366      2.38406024048075     -2.70555172586622
  C           1.75049383206093      2.57144893052180     -2.02210994508431
  O           1.01917802943545      1.37120095383987     -1.90683492140504
  C           5.47272138602836      2.96591000523809     -3.09046130159508
  H           4.13364719050544      3.86567852283494     -1.66400649136583
  H           3.08673871640523      1.61760255939252     -3.46707350950021
  H           1.11471416782119      3.21463200118428     -2.64083177451257
  H           1.87879701240275      3.04158839326471     -1.03886143281832
  Cl          5.93325890028249      4.53749031411901     -3.81334547367431
  Cl          6.69865782456043      2.54456581808026     -1.85497478113693
  Cl          5.51890057715327      1.73645804411506     -4.35822979799819
