17
Coordinates from ORCA-job NEB_product E -38.330433164230
  C           3.10651428392421      0.62700275539457     -2.03749066926525
  C           1.63835541287189      0.42616859900635     -1.85980425187199
  H           3.62098065767529      0.29008853126643     -1.13445527656957
  H           3.43001963277756     -0.02124854801245     -2.85824879599585
  F           1.39407504054897     -0.82806943838099     -1.38411002319680
  C           3.42642610513451      2.09528163952100     -2.34548569627250
  C           3.23388525621980      2.94107197011441     -1.11490400894400
  C           2.31958415517951      3.88564502156263     -1.01711370883408
  O           0.73481074874202      1.14982384021097     -2.07572092615021
  C           4.85370669500073      2.24412274457511     -2.87261975306426
  H           2.74887871777259      2.44642764710573     -3.13096169537419
  H           3.89692542307602      2.71505327620857     -0.29175797018651
  H           1.64917427042598      4.11387028999936     -1.82817715300790
  H           2.19760403517140      4.46063730312722     -0.11605829451881
  Cl          5.21283134656424      3.96060507192558     -3.16661155873559
  Cl          6.04493950569995      1.61080175725336     -1.71641831600794
  Cl          5.05468871321533      1.36471753912215     -4.41126190200456
