18
Coordinates from ORCA-job NEB E -34.214116186320
  C           0.51854710707633     -0.56824966429312     -0.65695131626806
  C          -0.61729264231315     -0.69352618323123     -1.46828778032255
  Br          0.26976898598258     -2.22044326311079      0.97903370590389
  H           1.44656524377914     -0.93687822491247     -1.07379547851409
  C          -0.58183419869436     -1.40194440622383     -2.67203913349656
  C           0.63591360280189      0.74375642584152      0.13688846698486
  C          -0.71216617697742      1.07959367149083      0.66152989086562
  C          -1.83331038713896      0.23590372037007      0.26230967199628
  O          -1.83528493860455     -0.28605693081940     -1.01992518234752
  C           1.71261791479769      0.74997622810519      1.24438134118278
  H           0.97180824100030      1.49279934217021     -0.59793346418235
  H          -0.78516667834234      1.54536661536794      1.63087991358803
  H          -2.81755745621106      0.67038158678797      0.44351451685723
  H          -1.69837405771650     -0.64140179844656      0.95771713787345
  N          -0.50456033812449     -1.96488339889931     -3.67291142669334
  F           1.19068556672953      0.40230491210820      2.45909355083742
  H           2.12781278458122      1.75522341026272      1.36737430797110
  H           2.51182742737417      0.03807795743208      1.01912127776380
