18
Coordinates from ORCA-job NEB_reactant E -34.254912924310
  C           1.58098649531848      0.06402390668081      0.09911543834595
  C           1.42774257572376      1.12607069070223     -0.70985477676512
  Br          1.34902349157092     -0.07381135414685      1.97159390399155
  H           1.87369064398371     -0.87644784747829     -0.33968081107309
  C           1.67418779280362      0.83614667703906     -2.09031512157279
  C           2.69072703170897      4.44340257940383      1.77252958064267
  C           2.27732022340464      3.24858800544994      1.38691768276375
  C           0.94409430730739      2.99442538387705      0.75297175881121
  O           1.06932770386423      2.41026878741353     -0.53813081720422
  C           4.01494452369231      4.71194060017758      2.40976475608343
  H           2.07076841020471      5.32164104439005      1.65810148112112
  H           2.92360694162243      2.39116810081712      1.51156009239688
  H           0.42626774242059      3.93810297818074      0.56295575849385
  H           0.31513110749634      2.37512358733014      1.40136113951204
  N           1.87358211368254      0.59233710903796     -3.19036192070193
  F           4.78022121749386      3.58002745272852      2.50773712953324
  H           3.88639214063806      5.09903165976874      3.42868581737444
  H           4.59068553706344      5.43576063862785      1.81904890824702
