18
Coordinates from ORCA-job NEB_product E -34.253882674110
  C           2.81221828889408      1.91501839734890      0.08257510436138
  C           1.87152351994385      1.86137090221143     -1.10686242108566
  Br          2.54286241015548      0.16805204309096      0.96661320374753
  H           3.85152221941843      1.89303710665401     -0.26010676558672
  C           2.18943917443465      0.77068885420989     -2.01410328654574
  C           2.54022457275871      3.11913199212805      0.99290180839327
  C           1.40656024361240      2.85747509313579      1.94962539080971
  C           0.17601283976162      3.29304427738992      1.76438600156070
  O           0.96585382573809      2.62675515750851     -1.29748376993054
  C           3.80431789618670      3.53335170797779      1.75029438023500
  H           2.26420618574914      3.95141473218299      0.33309496816783
  H           1.66967468688583      2.26749628508305      2.81683264909418
  H          -0.09955441467033      3.87393319380529      0.89956154036520
  H          -0.60879339452169      3.07243711546025      2.46663388242359
  N           2.46087171518154     -0.06123087605571     -2.75073697936683
  F           4.28168284396194      2.50214473115689      2.51356538914789
  H           3.58615166381324      4.36239785920601      2.43093250061550
  H           4.60952572269633      3.81678142750597      1.06247640359368
