20
Coordinates from ORCA-job NEB E -53.523084836850
  C           0.34313755735993     -0.40188623609726      0.79942597337140
  C          -1.14746696933137     -0.29696613302241      0.64392525616196
  F           0.78738361275425      0.65268081809855      1.56851763685062
  H           0.64761291233676     -1.31506150507599      1.31576234406041
  C          -2.02135163782964     -1.30053088625626      1.26627034116184
  C           0.87827566330649     -0.29590042762903     -0.63682922074107
  C          -0.07579130365875      0.61470738568963     -1.31961972192819
  C          -0.93522184282253      1.56835448376795     -0.56887834336854
  O          -1.68029028677763      0.92116119909679      0.41825517359237
  C           2.35541659766098      0.14726217706561     -0.78967510756606
  H           0.83040889107496     -1.30537130687556     -1.06109928278279
  H           0.22827796270540      0.95634835768733     -2.29961367707165
  H          -1.66351743801870      2.05613602172012     -1.22224760939890
  H          -0.30533039741489      2.35878518779377     -0.12753207117400
  Cl         -1.72927888222526     -1.45138286810320      3.05964563779917
  Cl         -3.72054983798999     -0.93909801351482      1.00913181333321
  Cl         -1.63512108317017     -2.90044033920225      0.55725775481347
  Cl          2.87649448355869     -0.14204855408389     -2.46735162163924
  Cl          2.56770922356846      1.87106611875156     -0.43954418332710
  Cl          3.39920277491300     -0.79781547981064      0.29419890785309
