20
Coordinates from ORCA-job NEB_product E -53.578623097890
  C           3.29659140996764     -1.08381263591383     -1.43607686368134
  C           1.79771138610386     -1.13954678607981     -1.15963325348023
  F           3.81953217089739     -0.05026978518066     -0.70889217524709
  H           3.80831989673967     -1.99624709541672     -1.11104500375197
  C           1.23242853778766     -2.55975634404639     -0.97969019723033
  C           3.49119284316431     -0.83744987024032     -2.95309020959505
  C           3.09696945454639      0.57331723200295     -3.29819136894016
  C           2.06471846459872      0.86442241290857     -4.06501726622191
  O           1.10539000500798     -0.17633589031519     -1.05533542678268
  C           4.92946555784511     -1.13155144590977     -3.39271230751899
  H           2.84834447822065     -1.54117902043308     -3.49200971177528
  H           3.70353432402419      1.34514927515273     -2.84942372109361
  H           1.44720421306379      0.10129455989927     -4.50988012645620
  H           1.79733712563116      1.88342013541631     -4.28006388841227
  Cl          1.80182925428760     -3.07369961997198      0.63259017637123
  Cl         -0.52981331043436     -2.53830836054481     -1.02001152658999
  Cl          1.84743048612937     -3.68350935285831     -2.20573402478105
  Cl          5.05043017152028     -0.85925877529206     -5.14663310718510
  Cl          6.11746991808470     -0.10717875188541     -2.57418597000805
  Cl          5.33481361281393     -2.83969988129150     -3.07366402761993
