21
Coordinates from ORCA-job NEB_product E -33.201333684630
  C           2.71175574444280     -0.57558723809789     -1.10912567688291
  C           2.85885570260210     -1.53024373576425      0.05714703415487
  Br          0.80261041954523     -0.05645301107127     -0.99099198807880
  H           3.25328939836653      0.35223181260004     -0.90721867615344
  C           2.80640595187730     -0.81501216990717      1.32468782216763
  C           3.04749297094098     -1.12711019520467     -2.49625392202540
  C           2.15042774283075     -2.27554401859213     -2.86643999058298
  C           1.20700008240017     -2.19421239722645     -3.78484662773352
  O           2.98770579499776     -2.72213426746357     -0.01198127318929
  C           4.52110222542568     -1.56307553887551     -2.56618880786668
  H           2.88735137097852     -0.31037311497461     -3.21120276151410
  H           2.31731947225723     -3.19290115493132     -2.32073938315443
  H           0.57561085693244     -3.03206516332891     -4.02386692474968
  H           1.02145863772936     -1.28526521567647     -4.33456019309280
  N           2.80426447815104     -0.23150098568254      2.30861432438397
  C           5.50953774584584     -0.42587692696376     -2.33136663388270
  H           4.68547986131697     -1.97536458263061     -3.56403274441084
  H           4.69966667307342     -2.36431141735467     -1.84703024085081
  H           5.28625878538270      0.41942172712272     -2.97950536757119
  H           6.51825122580238     -0.76519806449510     -2.55314051240480
  H           5.49555485910080     -0.08492434148187     -1.29795745656211
