24
Coordinates from ORCA-job NEB_product E -43.507079479900
  C           2.96650159478559      0.19482597067671     -1.41211981675327
  C           1.61431306443098     -0.47680728431686     -1.43248104037459
  C           2.98445701347002      1.04757562250133     -0.24343820470109
  H           3.78413821331045     -0.53003819541684     -1.32692696805609
  C           1.64662579716396     -2.00386979346252     -1.40152856947839
  C           3.11487882324033      0.98685316485902     -2.74761390846485
  C           2.19280648086338      2.16815260334719     -2.76077837875151
  C           1.27873315308383      2.36555066460080     -3.69161005352788
  O           0.56564988496892      0.09310776986240     -1.48557659741979
  C           4.58241906483763      1.36731047409418     -3.00332378930589
  H           2.81969207981062      0.30615514670146     -3.55629483232009
  H           2.30905022665505      2.86730189262247     -1.94484741896101
  H           1.13662989857339      1.67538078165808     -4.50788375869521
  H           0.63318233027669      3.22576517180557     -3.67773168129860
  N           2.96622308915863      1.68102080774970      0.70620648142055
  Br          2.46672349851084     -2.56491611543494      0.28521817413645
  Br         -0.14775688418813     -2.70669227106069     -1.53049797274078
  Br          2.71345590787729     -2.66561708451663     -2.89052809951269
  C           5.20600758430870      2.29286489213839     -1.96717873413463
  H           4.61801983888708      1.85120928628036     -3.98186099974839
  H           5.17190609337651      0.44880577791115     -3.07078557948806
  H           4.65585613439848      3.22673923061915     -1.89365719018471
  H           6.22744046171605      2.52473432002636     -2.25944705367964
  H           5.23544665048372      1.83148716675417     -0.98311400795983
