24
Coordinates from ORCA-job NEB_reactant E -43.508274171530
  C           2.12330310717962     -0.22627952658708     -0.37251500143394
  C           1.51979655096682     -0.63144103647590     -1.50417187266228
  C           2.40991798847827      1.09286193829085      0.00538846748734
  H           2.44108298005477     -0.96455574490631      0.35195407018239
  C           1.34085008303805     -2.10096091862806     -1.77588585688310
  C           3.64921989865488      1.10748846171813     -3.17074929197355
  C           2.68946284486198      1.89236287470476     -2.70964607737609
  C           1.24878138902531      1.48534277542995     -2.58335930664737
  O           1.05240316976787      0.07873949447460     -2.53237314890714
  C           5.09780105831931      1.45460283538686     -3.28883708155219
  H           3.41185022904847      0.10287914337054     -3.50262979419124
  H           2.88768830560641      2.89900992382388     -2.37945807272822
  H           0.67969566752208      1.79348440124776     -3.46743169359902
  H           0.79855555359670      1.95252387289387     -1.69980496466841
  N           2.67661544669426      2.14143032604885      0.38890420823649
  Br          0.79440029400905     -3.10181562740548     -0.20092930488830
  Br          0.02500339909290     -2.39668280320498     -3.16463320050997
  Br          3.06414807379140     -2.83373586933649     -2.40025235169817
  C           5.47061754078686      2.83664214486788     -2.77169442335339
  H           5.38255539944821      1.36391792989748     -4.34191902739233
  H           5.66869029795134      0.69485986518548     -2.74515016951775
  H           4.96518172636341      3.61159032397571     -3.34266105081116
  H           6.54313381776833      2.98842403649670     -2.86496253736796
  H           5.19874517797371      2.93871117873101     -1.72388251774462
