15
Coordinates from ORCA-job NEB E -30.118894502450
  C           0.51298529113744      0.64906696979699      0.57944366630434
  C           0.02159174213218      0.38752536790058      1.85329754041626
  C           0.19141049001810      1.85396325125798     -0.11058914711815
  H           1.59008167477225      1.39312669411611      1.35303343946077
  I           1.22657019955502      2.37865558173595      2.97384639954507
  C           0.52639313030412     -0.58382965120295     -0.33312035439453
  C          -0.63970422991312     -0.66434022395796     -1.25294381702813
  C          -1.45302479789712     -1.70450650784585     -1.28844278298683
  O          -0.37329551475856     -0.40881153088866      2.60075358716988
  Br          2.21446903856928     -0.48660239716737     -1.40539381949615
  H           0.62866229355549     -1.49140887840624      0.26562744119207
  H          -0.78452212733947      0.19034095105904     -1.89944459983672
  H          -1.31135424066607     -2.56309166294852     -0.65204494924876
  H          -2.29571413987485     -1.73478688037099     -1.95601406538659
  N          -0.05454880959470      2.78469891692190     -0.72800853859252
