15
Coordinates from ORCA-job NEB_reactant E -30.183711917660
  C           1.77121234535183     -0.15657934563352     -0.00815043306306
  C           1.79610576738897     -1.38060082884044      0.53634793144950
  C           1.39333718145745      0.15913598710544     -1.32091659952673
  H           2.06473611882682      0.69420585434441      0.58897649899293
  I           2.40822128322947     -1.61692701087580      2.54620893522995
  C           2.85647947143486     -3.89810532522622     -2.62144262058570
  C           2.29254703706465     -2.77600865577212     -2.20816096902774
  C           1.09977539472232     -2.77542785708184     -1.29853326539633
  O           1.48052708563112     -2.57936742933991      0.06508340399668
  Br          4.36923911478403     -3.92587491859160     -3.74098453227290
  H           2.49576402548689     -4.88226823406841     -2.36424498265965
  H           2.69230669409968     -1.81328571311860     -2.49232366933597
  H           0.61531567858705     -3.75498446623849     -1.29598735247678
  H           0.38189403617225     -2.00854763460655     -1.60475778697361
  N           1.10323876576262      0.47003557794367     -2.38801455835061
