15
Coordinates from ORCA-job NEB_product E -30.191063635550
  C           2.12143250541153     -1.25614580690479     -0.56073514079736
  C           3.17153809179628     -1.30101502793043      0.52614213113781
  C           2.26167690475822     -0.03916906676421     -1.33808067338282
  H           1.13541019373780     -1.22440833925911     -0.07344606416979
  I           3.03870083521801      0.39690300599747      1.85964982550661
  C           2.18943115373320     -2.49854877806231     -1.46432769023632
  C           1.04586186049603     -2.55227477652233     -2.41768644612984
  C           0.25100689463872     -3.60016822315556     -2.53399022755585
  O           3.97548187905970     -2.14360484793944      0.70273691767055
  Br          3.88900689436511     -2.47312298206869     -2.49930518882484
  H           2.24615577063075     -3.39996558559681     -0.84943372930668
  H           0.91779051115744     -1.67378308926483     -3.03609488331511
  H           0.38179728408146     -4.48534145527369     -1.93277005816631
  H          -0.56179057991339     -3.61326357208934     -3.23812522581514
  N           2.35989980082912      0.90000854483408     -1.97733354661491
