20
Coordinates from ORCA-job NEB_product E -45.051393717910
  C           1.48963842223739     -2.13744025710318     -1.05865698885873
  C           1.13776303401681     -1.61145500258043      0.31176371933936
  C           1.49609426035680     -0.97366326315717     -2.05390729547733
  H           2.51106883418852     -2.53452126180282     -1.03344544081660
  Br          1.92421495188593     -2.72912631551071      1.71434795995822
  C           0.53284641315218     -3.33609355726312     -1.33334084163576
  C          -0.91773326423130     -2.94525815538422     -1.41733719347344
  C          -1.73423524188768     -2.95577599198631     -0.38059377626943
  O           0.46152116860599     -0.69978476279090      0.61980187983340
  C           0.94953934489173     -4.15976543505141     -2.55686229658298
  H           0.65632282890553     -4.00527296738204     -0.47126219464022
  H          -1.27972046104382     -2.67681968568557     -2.39879970649726
  H          -1.40776543338687     -3.23865421804865      0.60721863827793
  H          -2.76965110927001     -2.68164682873949     -0.47649420491736
  Cl          2.09066493138519     -1.49544319824942     -3.64487475267666
  Cl         -0.07275727821052     -0.18895967802309     -2.25634517252145
  Cl          2.65829994945738      0.25380658164467     -1.43787529496539
  F           0.40634275332223     -5.41236028896867     -2.43676575805168
  H           2.03468396705574     -4.29233522488044     -2.61062938378907
  H           0.56966192856880     -3.74283048903703     -3.49284189623557
