20
Coordinates from ORCA-job NEB_reactant E -45.039307789330
  C           1.61329245426581      0.07020993013244      0.00158633296993
  C           0.93311117058077     -1.05335713755398      0.26318397076127
  C           1.99859984217655      0.43977641720729     -1.38116159356788
  H           1.89661764711546      0.73882727138807      0.79508469894020
  Br          0.49979447961470     -1.43279178655029      2.08050842630655
  C          -0.01241537061306     -5.05508622791343     -1.92342416012847
  C          -0.38901656627392     -3.81687224302453     -1.65519029017234
  C          -0.10344097793950     -3.12169410194007     -0.36319904681033
  O           0.54813509096419     -1.89455606002243     -0.67463053866613
  C          -0.30697499452702     -5.76785907613513     -3.20258688118386
  H           0.53637623831857     -5.64961017411961     -1.20593561950111
  H          -0.92661462709487     -3.23088273781856     -2.38603735714605
  H           0.53773884981693     -3.73647431018897      0.28040484988943
  H          -1.04413314029301     -2.91118988478482      0.16586746632164
  Cl          0.55754632657406      0.64331099772288     -2.42596213987273
  Cl          2.90713757229873      1.95779074991201     -1.38595964871864
  Cl          3.01918265322507     -0.82823054140083     -2.13034776610728
  F          -1.05397613267902     -5.00500844049285     -4.05938923066398
  H          -0.87709763601940     -6.68651398948919     -3.01438004767440
  H           0.62243712048898     -6.02168865492800     -3.72813142497581
