21
Coordinates from ORCA-job NEB E -47.045027080700
  C           0.30299064150259      0.85146085562609      0.62043602192315
  C          -0.95222385802425      0.53984907062600      1.15180631509050
  N           0.32506575575226      1.83096270631204     -0.46748972617807
  H           1.10054694169306      1.02813342658280      1.33908211074079
  N          -1.02759709239562      0.19439445312570      2.55837620071156
  C           0.68879650248447     -0.79270655281185     -0.38704974570118
  C          -0.42602424394607     -0.79386929684843     -1.21240777922208
  C          -1.76581810080795     -0.84097800937653     -0.63122575443054
  O          -1.97975696789629      0.19536443708398      0.41956446828523
  C           2.06684615681466     -0.67052168051164     -0.99114920873065
  H           0.69771227264816     -1.40798154533422      0.50577833932580
  H          -0.32280254961497     -0.49592370325633     -2.24426024712492
  H          -1.96459507850049     -1.77431256730466     -0.09476117152955
  H          -2.54935291333262     -0.64921808633177     -1.36080229731532
  O           1.13529222445295      2.71345315973658     -0.34361326498290
  O          -0.49041760284844      1.71233306735192     -1.34464145337700
  O          -2.00035433823266     -0.42655492668951      2.92006924975795
  O          -0.09831396654550      0.54398556279054      3.26050590886692
  F           2.05321380732567      0.13749919309904     -2.09346100827039
  H           2.42234494600775     -1.65458534692460     -1.32054431442070
  H           2.78444746346330     -0.24078421694514     -0.28421264341860
