21
Coordinates from ORCA-job NEB_product E -47.065636093930
  C           2.93430227946481     -1.30428019838481     -0.45214055710314
  C           1.57344667976051     -1.21420020150190      0.16336492663750
  N           3.17649260719989     -0.07896387056030     -1.29662632833643
  H           3.70354481143804     -1.31512943254625      0.33054428939520
  N           1.44531145680551     -2.14995997190332      1.40882569640929
  C           3.04334269512291     -2.61788738335969     -1.28306452175533
  C           1.93896865160481     -2.73081984149514     -2.29890426608342
  C           0.97621636428598     -3.62878970550577     -2.21480158573381
  O           0.62295076560846     -0.58920070914885     -0.14306788448910
  C           4.42274401134250     -2.70558880947459     -1.94522357984048
  H           2.98093927009831     -3.44842758465265     -0.57131371114274
  H           1.97792619330482     -2.02455411523910     -3.11495911024613
  H           0.92308121745173     -4.34126597061027     -1.40624729855190
  H           0.20137282595309     -3.69189494920293     -2.95737272464366
  O           4.11965450040404      0.58510806732367     -0.96022981002970
  O           2.40897280673698      0.14386014186487     -2.18536327313209
  O           0.37074160308497     -2.15706233470971      1.93223231597008
  O           2.42561811552549     -2.78517854123871      1.71385800400643
  F           4.59428661737100     -1.69908345123495     -2.85471477927086
  H           4.51466936303906     -3.64945268538318     -2.49103199632831
  H           5.22941716439709     -2.61272845303643     -1.21026380573142
