21
Coordinates from ORCA-job NEB_reactant E -47.067438047090
  C           1.73850013399679     -0.05538196553410     -0.07737499786493
  C           1.42462077153363     -1.28361286402333      0.37689648792272
  N           1.66282262445693      0.43451477745451     -1.40983782280409
  H           2.08503408244458      0.67926019715895      0.63816755052558
  N           1.48663938983448     -1.44221469523831      1.87920617770686
  C           3.41373645261738     -3.98037557243663     -2.24378691562097
  C           2.81938517097998     -2.89971825196200     -1.76685752703705
  C           1.35055788033619     -2.81001034450796     -1.49530748496597
  O           1.09380605947595     -2.43688890190664     -0.13645113465830
  C           4.87572109304268     -4.07305598255578     -2.53377017016963
  H           2.85820575394981     -4.87896133954170     -2.47024291131725
  H           3.40482622194485     -2.01583424007981     -1.55282458160308
  H           0.87016680187351     -3.78444055882287     -1.59538861835894
  H           0.88220490337321     -2.08955514768323     -2.17933962407339
  O           2.36405085936482      1.38088676396089     -1.68166551284625
  O           0.88224768686180     -0.09935234432403     -2.17738230381252
  O           1.38757271880317     -2.56225366237633      2.29130709631349
  O           1.62496941818157     -0.43989900791992      2.52863349497602
  F           5.54065294454078     -2.92785358273444     -2.18540558607164
  H           5.05195212548033     -4.23259884274761     -3.60497404312891
  H           5.33252690690756     -4.89315443417966     -1.96600157311176
