23
Coordinates from ORCA-job NEB_product E -32.533933241970
  C           2.58692905254540      1.42737484244971     -0.78476203788600
  C           1.71158423381862      0.32024244548351     -1.29132004216257
  C           2.23191433994850      1.69489213687866      0.67728019463733
  H           3.62753013668430      1.10381409256197     -0.87972884118660
  F           2.37603011025661     -0.45859051444259     -2.20461982362447
  C           2.36057946907564      2.68195711787802     -1.68252728358731
  C           1.72172451818430      2.28987729693035     -2.98780750454459
  C           0.48727037655398      2.60246316428593     -3.33301677413931
  O           0.60055689664663      0.04024384781257     -1.01373637840141
  C           3.67135171020293      3.42205107256711     -1.98203788638291
  H           1.68028598607507      3.35438063262581     -1.15161033640019
  H           2.35309025094778      1.72683907941270     -3.66293697109526
  H          -0.16097021394988      3.16300093859986     -2.67931325797971
  H           0.06755665418072      2.30376175103704     -4.27794732623193
  H           1.16377013149943      1.87708281332174      0.76834928486515
  H           2.77009540045497      2.55913863164231      1.05283003025255
  H           2.48325419462657      0.83316845443928      1.29218566743714
  C           4.35048548432053      4.01422600491943     -0.75365794116923
  H           3.43912016468016      4.22919032854542     -2.68129400887678
  H           4.36030797383731      2.74024969288268     -2.48615719062885
  H           3.66701107015799      4.66622301084484     -0.21409870860251
  H           5.21260132259537      4.60363571417160     -1.05745810190830
  H           4.69842073665709      3.23567744515203     -0.07971476238424
