17
Coordinates from ORCA-job NEB E -36.860653538920
  C           0.28492942416416     -0.92611107279546     -0.70570276988043
  C          -0.93378347399868     -0.24863989816917     -0.95537848891368
  N           0.28911645046589     -1.89262724122007      0.36781524726043
  H           0.82468946732671     -1.28827321910140     -1.57545986941531
  O          -1.20419777153723      0.02853452386092     -2.24498962625990
  C           1.30844229591719      0.53369369822571      0.10885392010852
  C           0.50299869248624      0.89611307866059      1.18717400381264
  C          -0.77295496111941      1.42771248913442      0.89703752303216
  O          -1.63065260351362      0.28002750312022     -0.03687719030807
  Br          3.04921375480232     -0.18009534496098      0.46396895084239
  H           1.33790795296036      1.15520559648583     -0.77878186150662
  H           0.67026325149692      0.43827007289447      2.14925507327661
  H          -0.82918158095981      2.23099123922635      0.16938327617670
  H          -1.44889567526235      1.55008823015274      1.73157945554428
  O           0.86746014576014     -2.93210059705117      0.14463082086872
  O          -0.28897054429438     -1.60940101973572      1.39125151011186
  H          -2.02638482469447      0.53661196127273     -2.31375997475030
