17
Coordinates from ORCA-job NEB_product E -36.906486683290
  C           2.77611590888989      1.36833278821026      0.09260717129311
  C           1.39030022270306      1.75157462546054     -0.56280894351045
  N           2.72216321924802      0.00776976526800      0.65375981759738
  H           3.48528508697108      1.32694253837503     -0.74665428634032
  O           0.81575564297093      0.79924632808499     -1.25287953926958
  C           3.19594171689815      2.45015074459269      1.08367474184418
  C           2.31263617502527      2.60012200421794      2.27632986314276
  C           1.70056191265140      3.73423396042365      2.56290311184557
  O           0.96731187016487      2.85931312242523     -0.44813483120352
  Br          5.06380722239540      2.07189108117473      1.66480770327095
  H           3.25636830636166      3.39644231819490      0.54106073123596
  H           2.22639242057378      1.73530214350007      2.91791427015263
  H           1.78731668224115      4.60462543706238      1.93443846576378
  H           1.07126197397582      3.82532517319902      3.43038384367741
  O           2.42648535376899     -0.86401527361904     -0.15175397328871
  O           2.93443915989140     -0.17174656894038      1.81630197604350
  H           1.27625712526914     -0.07551018763002     -1.18195012225467
