18
Coordinates from ORCA-job NEB E -34.681920088440
  C           0.11202607164774      0.65851702135906     -0.59376378159332
  C          -0.36123553001939      0.91499303780464      0.79989999894623
  C           1.63067953445331      0.53044520873528     -0.78998967343218
  H          -0.22057577581816      1.47383020345935     -1.24385891961626
  C          -0.97249603154568      2.12288126796785      1.11131267877404
  C          -0.64414856817721     -0.62475554233190     -0.95816037248626
  C          -0.53515942390254     -1.68306247906883     -0.03719112010589
  C           0.10216164375111     -1.35648557694408      1.27126488643545
  O          -0.40150044217244     -0.07253043132845      1.66850109222550
  Cl         -2.56393717218492      0.04511219804322     -0.87289106733889
  H          -0.60791055192298     -0.85046297284495     -2.01557737304318
  H          -1.27614896137505     -2.46391191791179     -0.05812905769704
  H           1.20145733171876     -1.30768110688355      1.23736242182304
  H          -0.18927346494253     -2.04762333546196      2.06280114569099
  F           1.88131126161763      0.28736890139847     -2.11336427362225
  H           2.08570094430693     -0.29253164124594     -0.23455717177887
  H           2.12419065640630      1.47529533532898     -0.53833111202473
  N          -1.36514152184089      3.19060182992461      1.30467169884361
