18
Coordinates from ORCA-job NEB_product E -34.723550154830
  C           1.09807151132776     -1.63854420842915      0.07389814377413
  C           2.14770621139514     -1.89469960051296      1.15553733884730
  C           1.64827226391326     -0.70297310801383     -1.01387515902673
  H           0.27622499398945     -1.10901707127494      0.57683817421429
  C           2.89407449494063     -0.69726799989601      1.50867841878637
  C           0.52663785165608     -2.96663171998450     -0.44723505003394
  C          -0.83033158692828     -2.81370366164113     -1.04846601961350
  C          -1.87252635146257     -3.53613220835192     -0.68062890189624
  O           2.31600288405855     -2.94598201595875      1.70733249657855
  Cl          1.62439979303493     -3.67024912720432     -1.69711788841227
  H           0.50730760442034     -3.69161361205877      0.37150511973494
  H          -0.91586504685535     -2.08342380618979     -1.84089759693805
  H          -1.80171897113173     -4.27894509758614      0.09644743279908
  H          -2.83669755272655     -3.41453827221349     -1.14227046674664
  F           2.95255997374756     -0.99381788743268     -1.30462469263437
  H           1.63238684493648      0.34029757013716     -0.67996040607138
  H           1.08473827139015     -0.81087418974736     -1.94494334175760
  N           3.45125681029414      0.25691601635858      1.80438239839606
