31
Coordinates from ORCA-job R E -38.006651535930
  C          -1.23182136370002     -0.21664497934085     -2.86240062339467
  C           0.66571811346061     -2.34102506329022     -1.85556742591113
  C          -0.64767933484930     -2.46720533854069     -2.04491641427493
  C          -1.58654389384313     -1.44838813811695     -2.45166670161092
  C          -1.19596747020877      1.50849521508425      0.31745264222889
  C          -0.54957200375321      0.41846342725500      0.69307235775711
  H          -1.09441120884576     -3.43932530702053     -1.87059323145103
  H          -2.62465669544456     -1.74231166932297     -2.41214425316140
  N          -2.03513257210229      0.84226375846922     -3.17964212348734
  H           1.26917763544479     -3.17946871997218     -1.55451020221709
  H          -0.17861169643625      0.01958353102072     -2.92478909558571
  H           1.18840937584530     -1.40911543605117     -1.98902869166507
  H          -1.61534650209000      1.58422585608468     -0.66613269124595
  H          -0.41193454405276     -0.43379104239184      0.04475026189643
  H          -1.32626813034764      2.35088235750248      0.97869065079152
  O           0.01747637499745      0.21315003955164      1.90499440507263
  C          -3.47931379671747      0.68675619499298     -3.19079467849633
  C          -4.19411580606180      2.00929368586583     -2.91579689611464
  C          -3.97679251608578      0.06402590551105     -4.50049997769658
  C          -1.46978949693676      1.93755648354993     -3.92899846106613
  H          -3.71561758478886      0.00766879488161     -2.36489441445844
  H          -4.10927241022875      2.69034621258490     -3.75878016085868
  H          -3.78617984311398      2.48708041551625     -2.02823162128253
  H          -5.24969168803199      1.81523178403947     -2.74351302717875
  H          -3.81767391045132      0.74367058936756     -5.33464796594438
  H          -5.03965039788334     -0.15212354603726     -4.43270562408784
  H          -3.44319051671000     -0.86210183349033     -4.69989929474161
  H          -0.38431517348900      1.89335925370819     -3.87234424957019
  H          -1.79222930208785      2.89361681845762     -3.51303159717034
  H          -1.75777692510699      1.90243508575716     -4.98559161514761
  H          -0.12604671638055      0.98883566437445      2.46298072007273
