17
Coordinates from ORCA-job NEB E -34.403195897300
  C           1.09454243496076     -0.43422318970547     -0.65297158774450
  C          -0.15294983839131     -1.03933645984993     -0.39776504183004
  F           2.15145579865232     -0.85619315222190      0.07044171147967
  H           1.39788773417810     -0.24027222536972     -1.67864747827116
  C          -1.24578422753609     -0.92502723846019     -1.44152385976781
  C           0.79561966239598      1.26511329240147      0.12635539637877
  C           0.49364692518612      0.91760220367929      1.45164431900850
  C          -0.68261253660778      0.16967428602782      1.68451277182379
  O          -0.50260849058453     -1.25463130405092      0.82679665932819
  Cl          2.27031881817019      2.14772427717467     -0.16831706545317
  H           0.00502437544042      1.62230070854224     -0.52632834609393
  H           1.31260850204017      0.83035595894216      2.14970762069913
  H          -1.59631142043240      0.52613390213901      1.21785482651761
  H          -0.83455002396388     -0.19870317463651      2.68998451268290
  F          -0.85318003137406     -0.16143129159494     -2.50969990324125
  H          -2.13933102664529     -0.45530627071762     -1.01085010306506
  H          -1.51377665548870     -1.91378032229946     -1.83119443245165
