17
Coordinates from ORCA-job NEB_reactant E -34.438843045190
  C           1.47650620405276      0.29487701916129     -0.00096388611916
  C           1.52246174485377      1.40805354400099     -0.72525247627180
  F           1.94730298277794      0.17159762762579      1.26119089546310
  H           1.05014399994721     -0.62307072317534     -0.36786832890755
  C           0.96317472234183      1.42730404137944     -2.12805097183436
  C           2.96743009019239      5.15238852062557      0.03908887348958
  C           3.07611702835544      4.24268933708086      0.99101739670832
  C           2.59404925294511      2.83265382391669      0.85851516621753
  O           2.01743083262017      2.63557150975285     -0.42143375918678
  Cl          3.53376852114892      6.76119673324980      0.23080048103292
  H           2.51888436016780      4.95320417429072     -0.92028635303292
  H           3.53135269206747      4.47490183492067      1.94215124689830
  H           1.85493476758057      2.62835595614311      1.64549263790932
  H           3.43966127963113      2.14660242259459      1.00562392022208
  F           0.44832357429290      0.21723486298918     -2.49114635000152
  H           1.75331886971486      1.67811062304356     -2.84476340697908
  H           0.15583907730975      2.16472869240022     -2.20101508560798
