17
Coordinates from ORCA-job NEB_product E -34.438362208460
  C           1.86343870034244      1.75756107667371     -0.35619353906763
  C           0.71126344476865      1.97540503373858     -1.35973047688461
  F           1.43986271497133      0.85958801924702      0.59682740693644
  H           2.74988305436336      1.31957626940365     -0.82966030226231
  C           1.10340047818731      1.66515581278555     -2.79024502981878
  C           2.19883987672704      3.08561880731264      0.33048633143235
  C           3.29364356032774      2.95379415808856      1.33215108079727
  C           3.16767434508002      3.32008130079316      2.59425784955183
  O          -0.36594406991007      2.35454608771911     -1.01233245942159
  Cl          2.71268012299285      4.21390640056531     -0.97303678048857
  H           1.29038328119740      3.49998846069089      0.77599534152523
  H           4.21775941107652      2.53853562837606      0.95492845669461
  H           2.25064572322459      3.73655391315274      2.97621771555344
  H           3.97569975211128      3.20957270436141      3.29566471670135
  F           0.08324413824675      1.91477620082040     -3.65591941727851
  H           1.36617016839629      0.60380373102258     -2.88302023044068
  H           1.95565529789650      2.28973639524863     -3.08609066352983
