26
Coordinates from ORCA-job P E -38.600985163140
  C          -0.84009307201182      0.31636989498451     -2.40838920983385
  C          -0.83649292495227     -1.68435697664931     -0.18093858327450
  C          -1.10132707003181     -2.02840357974875     -1.61296674583994
  C          -1.10080062957996     -1.15023278122846     -2.59999290738817
  C          -1.05732656288748      0.70701532755648     -0.94011905353085
  C          -0.30025661219947     -0.26170805790273     -0.02781384959169
  H          -1.30320160475143     -3.07100669624037     -1.81337049963815
  H          -1.30371069977266     -1.44166126153401     -3.61885327336515
  O          -1.69624988026376      1.01249335873602     -3.29585995652886
  H          -1.76397060134625     -1.79513100730658      0.38880638200525
  H           0.20990345996976      0.53270692407322     -2.68810085426674
  H          -0.11046047259553     -2.39132937872409      0.22763339911767
  H          -2.12597933816118      0.64898900751132     -0.72469358703761
  H          -0.41055753262271      0.07175952927508      1.01057860309616
  H          -0.71497654052593      1.72632732209849     -0.75931467173561
  C           1.18840106459419     -0.22142085415959     -0.33152460207269
  C          -1.38172897505742      2.36745106307641     -3.47931260713091
  H          -2.01741744363503      2.72041853377582     -4.28961566928242
  H          -0.32873107008791      2.49658756714833     -3.76115121969328
  H          -1.58206421371607      2.96420406562754     -2.58229707725507
  O           1.88666161461611     -1.17492716398233     -0.54772507183751
  O           1.65464204899392      1.03565655921932     -0.29790833901252
  C           3.04331317372590      1.19286907271997     -0.55490653888355
  H           3.26185289520478      2.24834693442034     -0.41488203374397
  H           3.27736748364963      0.88474874278740     -1.57607234334717
  H           3.62806350344440      0.58291385446597      0.13634031007114
