26
Coordinates from ORCA-job R E -38.513254160990
  C          -1.03271579672730     -0.31420619796114     -2.72089011154840
  C          -0.41995754642384     -2.99613617430638     -1.46843361100833
  C          -1.57867388415142     -2.60934812906073     -1.99455239539116
  C          -1.91687858002406     -1.27732150758952     -2.45100440524074
  C          -1.24782488627560      1.49394292040382      0.39671647205065
  C          -0.44262076819720      0.45266152655475      0.24303758965339
  H          -2.38157157704179     -3.33123157954264     -2.08374958010894
  H          -2.96576944204351     -1.05791501422514     -2.58931435958062
  O          -1.42892372073482      0.92076096453641     -3.12858910811857
  H          -0.26117768136210     -4.01452481525793     -1.15788131572954
  H           0.03533930430724     -0.47750345307751     -2.64540724405935
  H           0.40577150935988     -2.32129951867299     -1.32472046280215
  H          -2.28649986243530      1.36857203462865      0.64984838440137
  H          -0.78561685393103     -0.56514679089107      0.35912497074754
  H          -0.89392207156723      2.50366617358494      0.27174345852597
  C           0.98305520809736      0.56059581682137     -0.12456968049125
  C          -0.39690631497559      1.83659002438331     -3.40421782834719
  H          -0.87671044467229      2.73269273430964     -3.79429918166801
  H           0.29808531078452      1.44311489430811     -4.15364622928295
  H           0.15917060026398      2.09176468209709     -2.49620364571747
  O           1.70231902472220     -0.38650350732693     -0.33160128250895
  O           1.41089217495170      1.83182284840711     -0.22600419359179
  C           2.77866371019751      1.99783056310025     -0.56429447828201
  H           2.96666161827502      3.06848696986865     -0.55348999732360
  H           2.98173344430600      1.58367403635366     -1.55469457889948
  H           3.41454752529768      1.48877049855422      0.16283281432158
