26
Coordinates from ORCA-job TS E -38.504045638450
  C          -1.15108574769142     -0.12232265329361     -1.29844093318110
  C           0.19850768614122     -2.15753375178491      0.24817176635087
  C          -1.05861785000004     -2.30999137684933     -0.23454447759371
  C          -1.71193448315167     -1.33841052146031     -1.01785490509160
  C          -1.06179502846243      0.59922141947404      0.82380171766161
  C          -0.34778105224299     -0.27252018186478      1.59120348660860
  H          -1.65904928724257     -3.13770751089038      0.11703117504879
  H          -2.75905704669118     -1.47013448735045     -1.24609581555621
  O          -1.88184798600944      0.80797720380473     -1.95968702662983
  H           0.61460116078443     -2.87401584731800      0.93588875328594
  H          -0.07751101840280      0.01626560223127     -1.31269691641637
  H           0.90572983004536     -1.49819462060441     -0.21990596821617
  H          -2.13522691652098      0.62737886096280      0.89162832661913
  H          -0.84280019354205     -0.96945053022099      2.24813616487787
  H          -0.57662364020377      1.47995474552000      0.44085898830795
  C           1.08680105042925     -0.11602467742443      1.84033510532017
  C          -1.18011644252955      1.94009402965694     -2.41720783661096
  H          -1.90416487953026      2.55814457939376     -2.94473256042446
  H          -0.37415069182651      1.65869352125428     -3.10267571965934
  H          -0.75666155044367      2.51130863615614     -1.58454638764791
  O           1.69054406968404     -0.64291384805958      2.74370752201157
  O           1.67673200404412      0.71199024562591      0.94276896302291
  C           3.06556128927115      0.95199898680579      1.10216894547190
  H           3.23410048430602      2.02231040358136      0.98737342361070
  H           3.61753487440558      0.40495354587887      0.33476592267250
  H           3.38831136538014      0.61892822677529      2.09054828615713
