20
Coordinates from ORCA-job P E -25.150898816140
  C          -0.98829947104688      0.10264228833949     -2.82495168492324
  C          -0.41525715836653     -1.49295368528050     -0.36868488912451
  C          -1.23178180259647     -2.00292368782943     -1.51337976160714
  C          -1.48492819348180     -1.30069710378831     -2.60497731797422
  C           0.14155418319704      0.43604088827682     -1.84264965511561
  C          -0.27197665274610      0.02367065082592     -0.43518862207394
  H          -1.61072671626359     -3.01157429234383     -1.41728246376458
  H          -2.10472151473831     -1.70180124925077     -3.39329036774938
  O          -2.11368668159268      0.96246812853316     -2.67825970148617
  H          -0.88140614257648     -1.79059553891014      0.57357535639905
  H          -0.61132832245395      0.19244809224134     -3.85958441848400
  H           0.57351101397007     -1.96439988878100     -0.40216414383029
  H           0.36244270405321      1.50412331006922     -1.87847770556116
  H          -1.23365868738759      0.48818889128578     -0.20981709148807
  H           1.03938398592629     -0.10672443892636     -2.14531673018248
  H           0.46071724513371      0.36847016473722      0.29703072404273
  C          -1.98278946914029      2.21850167175264     -3.28553903684100
  H          -2.94151132176566      2.71886688035400     -3.15958922462446
  H          -1.76114308730639      2.12286549592889     -4.35681738772385
  H          -1.19903391081764      2.82792342276586     -2.81999587788767
