20
Coordinates from ORCA-job R E -25.058256001740
  C          -1.46164189160855     -0.26034523524668     -2.86561436014868
  C          -0.24231757199196     -2.73456840604311     -1.62278920670682
  C          -1.53887770438368     -2.45960254654152     -1.73998960218472
  C          -2.13630141426023     -1.28997209707326     -2.34599563987333
  C          -0.58260196923862      1.91248536111261     -0.25103421460497
  C           0.21150853202383      0.88032549957513     -0.05495056560554
  H          -2.25146458514733     -3.17038947599345     -1.34047797646224
  H          -3.21545975157397     -1.24749734787331     -2.36323301118969
  O          -2.09610785785792      0.80730320660873     -3.40847852307705
  H           0.09567423410925     -3.63712489188783     -1.14356457957475
  H          -0.37872461682827     -0.22672880985927     -2.87943833586238
  H           0.52744810600070     -2.08224442053746     -1.99754744265323
  H          -1.63740913443814      1.79091543048165     -0.43544073544790
  H          -0.15965374940369     -0.13135486871758     -0.06920716598048
  H          -0.21732074916787      2.92759260068938     -0.23513024281298
  H           1.26699051535161      0.99766754113698      0.13223347780649
  C          -1.26249230894202      1.84181850704857     -3.87157709272926
  H          -1.91867544121281      2.61607501641905     -4.26506942890406
  H          -0.59764929880996      1.49255108470655     -4.66901845115519
  H          -0.65744334262035      2.25478385199481     -3.05694690283320
