20
Coordinates from ORCA-job TS E -25.045786122960
  C          -0.49072340473704      0.03232107779380     -0.88000717200937
  C           0.85586388458561     -1.94689549285690      0.72328818793691
  C          -0.47448949825956     -2.00603686545882      0.44223448116422
  C          -1.13586558304656     -1.03423671876975     -0.33203014861811
  C           0.31191731665486      0.92342316081773      1.18015838371490
  C           0.88552347560744     -0.07184001747212      1.89738658229840
  H          -1.09686140486282     -2.69825290025237      0.99264901778998
  H          -2.21560716099698     -1.02319337975565     -0.34186141674750
  O          -1.21027839140926      1.01651691737220     -1.47939436252868
  H           1.29327189694738     -2.66443289425391      1.39891227748068
  H           0.56611774068640      0.01062658643268     -1.10640035607452
  H           1.54761487542923     -1.47859077983143      0.04691526843272
  H          -0.70829025197246      1.21807651148379      1.34712009872305
  H           0.33803385969628     -0.55107544340756      2.69037735633089
  H           0.91626719332642      1.59368205805417      0.59262976750828
  H           1.95744836087728     -0.16454585963758      1.94334802183326
  C          -0.46946985122836      2.00936248449179     -2.14437957858727
  H          -1.19259600007809      2.65757931435015     -2.63625252905745
  H           0.19912209709044      1.57538860884653     -2.89574209235151
  H           0.12300084568980      2.60212363205325     -1.43895178723888
