16
Coordinates from ORCA-job NEB E -32.501086413910
  C           1.14968841685884      0.04244904987954     -0.36831579923980
  C           0.54507224903696      1.24647803943125     -0.78850367582774
  N           0.74685937738895     -1.11435467654677     -1.17048723603295
  H           2.23244599812528      0.05565162408072     -0.26618254666327
  H           1.12757379720272      2.15041730709584     -0.91973551285022
  C           0.33713648966402     -0.32598444704974      1.19411837804543
  C          -1.02124888505454     -0.39272979424761      0.84837859737016
  C          -1.60933272485414      0.76818245022660      0.18462571222566
  O          -0.75666876966489      1.38306279560601     -0.86713211331243
  I           1.19328773178108     -2.09475121199645      2.05974021943932
  H           0.69343214681560      0.52407904585379      1.76223350055377
  H          -1.53517564683804     -1.33546857031138      0.78010808270233
  H          -1.76359999589638      1.61381155613135      0.86257916056987
  H          -2.54474412267514      0.52228350552467     -0.31506613826485
  O           1.64544256109738     -1.74926908272897     -1.67482872507731
  O          -0.44016862298772     -1.29385759094885     -1.32153190363796
