16
Coordinates from ORCA-job NEB_reactant E -32.539642452620
  C           2.19379086033520     -0.37064305880115      0.71154436511095
  C           1.36205011491719      0.03614157896776      1.68458860519946
  N           1.77193811479779     -1.01919363634768     -0.47622827074899
  H           3.25789886935882     -0.22285215605634      0.78269951320620
  H           1.78879899607331      0.51821906530647      2.56245673700785
  C          -0.06980986094600     -0.06709493884845      5.14490169539490
  C          -0.43062030467103     -0.54592663093547      3.96970268254920
  C          -0.69063802660648      0.32686752672376      2.77633173879316
  O           0.04815017621026     -0.10400212278931      1.64442758655951
  I           0.29260634123620     -1.27614103780541      6.82193724385035
  H           0.04673310114145      0.98579559134097      5.34503264945459
  H          -0.53951710581732     -1.60659089001885      3.79527715378034
  H          -0.46746352537257      1.37699677714191      3.00378798198993
  H          -1.73741201284520      0.23815332700095      2.47038173361338
  O           2.64927436555842     -1.32089191331444     -1.26391898247271
  O           0.59051989662996     -1.23703748156471     -0.64382243328814
