16
Coordinates from ORCA-job NEB_product E -32.536635689190
  C           1.68183208401158     -0.44814069351430      1.85851099303797
  C           1.34015711003106      0.70093747847309      0.90484190912525
  N           1.42908854668759     -1.73287919516574      1.14247949701565
  H           2.77214371075066     -0.40128585103005      1.99522782678119
  H           1.52751131248023      0.43882707818523     -0.15162588810929
  C           0.96450524475331     -0.29279534804187      3.19324764899968
  C          -0.52060620771307     -0.35356605020686      3.10256067612428
  C          -1.29868297379368      0.62427664001982      3.53029798162483
  O           0.94118851454370      1.76534459696076      1.25801911572712
  I           1.69550536550378     -1.79545960284877      4.60726074080562
  H           1.27209282889161      0.66290022132030      3.62240520204791
  H          -0.93715985290034     -1.25988505557274      2.68705176387847
  H          -0.89729656258738      1.52841033500725      3.95776031945152
  H          -2.36993921332618      0.56113305083962      3.45716620692312
  O           1.95931220662773     -1.83188014425500      0.06409602795833
  O           0.72544788603941     -2.55023746017076      1.66759997860835
