19
Coordinates from ORCA-job NEB_reactant E -37.499219979760
  C           1.92027458292556     -0.02630978283388      0.24530736560352
  C           1.50702369502821     -1.26142283811935      0.58213892989863
  N           2.13018830040725      0.37808914841630     -1.04333713714845
  H           2.16075843823897      0.68745538256654      1.01808114892296
  C           1.34572467433745     -1.64981781528050      2.01978854067292
  C           2.72059096419330     -5.24360257824659     -0.08958498936650
  C           2.84848218689740     -3.93557093221451      0.02677461308142
  C           2.24684100393606     -2.95339187139218     -0.93232113118529
  O           1.16557255417750     -2.19470327585225     -0.37159345068141
  H           3.16440323430852     -5.92226406158205      0.61827515149399
  H           2.16751698461556     -5.68917095569714     -0.90025019635178
  H           3.40249989888282     -3.50389306582713      0.84884263352894
  H           1.79253129545818     -3.47439708753533     -1.77826647756274
  H           3.02478439097117     -2.26655270412018     -1.29390005257880
  H           1.68617122082755     -0.19455481789268     -1.74636947982993
  H           2.10175247427916      1.36820924400465     -1.21964593534929
  Cl          2.93721109850045     -1.69713312280471      2.86767045467139
  Cl          0.35736546205801     -0.44381834755466      2.89770899278471
  Cl          0.57610753995686     -3.22505051803434      2.19068101939571
