19
Coordinates from ORCA-job NEB_product E -37.501507134380
  C           1.99505436573495     -1.68306448736189      0.40448742224538
  C           0.68443508462109     -1.82156643995986      1.16439567864236
  N           1.82980913557442     -0.87663574588661     -0.78394697299896
  H           2.75661862483319     -1.21662809130662      1.03546061659815
  C           0.76518081350200     -1.62225605540603      2.69163946984683
  C           2.45450633948419     -3.10153864063038      0.00262462973974
  C           3.74309808491002     -3.03268160033523     -0.75391051030670
  C           3.90253712349687     -3.47458070239615     -1.98596418808015
  O          -0.37603893908872     -2.00186162636255      0.63712807625369
  H           2.58912752085067     -3.69873485097516      0.90706801289817
  H           1.67930634570204     -3.56293842270053     -0.61105050606038
  H           4.56689564183573     -2.58330596246289     -0.21734628575451
  H           3.09280284795883     -3.92147301524181     -2.53868849324752
  H           4.84967672832575     -3.41511364415199     -2.49318290514258
  H           1.13184790645365     -1.28764784850227     -1.39479543471132
  H           1.53277557534676      0.06341382902830     -0.54794588489405
  Cl          2.10912526339845     -2.52190225837402      3.40631237082020
  Cl          1.04597525775649      0.12817471143000      2.91331917241130
  Cl         -0.74513372069638     -2.08325914840431      3.48559573174036
