18
Coordinates from ORCA-job NEB_product E -30.092885665460
  C           2.56504641261041     -0.16352680201494      0.97156879083003
  C           1.14983333458981     -0.02494455027328      1.53691244261131
  C           2.51781661111227     -0.66044692552174     -0.46954065311027
  H           3.06856738389224      0.81025811018225      1.00625175890531
  O           1.03142206612371      0.84288410710415      2.55718071130161
  C           3.31504834733903     -1.12040152343657      1.91721799755464
  C           2.80595988185214     -2.52083879653045      1.87462751038375
  C           2.26811878530340     -3.12569210835808      2.91730773270478
  O           0.20901989453747     -0.64877070561907      1.14967006436940
  Cl          5.06637641630486     -1.12679875515592      1.47163133906223
  H           3.28334000210846     -0.73925700275311      2.94329868088057
  H           2.91443607422832     -3.03093455476742      0.92978609176208
  H           2.15753515569499     -2.63423951902062      3.87020652853472
  H           1.90347207783165     -4.13564134134535      2.85608560775998
  H           1.82246163048666     -1.49081879795167     -0.55405548066333
  H           3.50634524290696     -0.97418822361837     -0.79360898922198
  H           2.17274992853692      0.13701341562347     -1.12283297286865
  H           1.85505075454068      1.30604397345672      2.76089283920382
