18
Coordinates from ORCA-job NEB_reactant E -30.070694090470
  C           1.69507304077793      0.06941241074375     -0.04272531731394
  C           1.84069907727597     -0.50194334365842      1.15042850478112
  C           1.44875111491944     -0.68887684505902     -1.30716941005920
  H           1.73980755351234      1.14610851759038     -0.11417831621685
  O           2.06939465352511      0.19597516261724      2.30605984291727
  C           4.27990535456636     -1.65391682756085      3.66259707501108
  C           3.68760216317581     -2.29428252800843      2.67096559018505
  C           2.19568117148286     -2.39079499198449      2.53922904526651
  O           1.74340051618583     -1.84645331375007      1.31044450149731
  Cl          5.98682527691187     -1.52867110484088      3.80423141059946
  H           3.74153399490528     -1.17212394471635      4.46411702587399
  H           4.25855299806870     -2.74463453667542      1.87192972695047
  H           1.70176498022524     -1.90092689933356      3.38459917452509
  H           1.88958841724242     -3.44014320936514      2.49261297180499
  H           1.47465955643767     -1.75582224502965     -1.11051141332243
  H           2.20629010687350     -0.44324920766096     -2.05117854040465
  H           0.47541919996037     -0.43216989446057     -1.72547654609670
  H           2.10615082395327      1.13601280115244      2.10272467400142
