25
Coordinates from ORCA-job NEB E -51.378543888590
  C           0.11430586358488     -0.89405758250117     -0.38623157333594
  C          -0.98521935182579     -0.03885628220386     -0.65675465426702
  C          -0.19171538476949     -2.23802595621896      0.23718426444875
  H           0.81949863687417     -1.03874774750864     -1.20220242704683
  C          -1.02519130765577      0.77889112355538     -1.91999239598940
  C           0.99143468255277      0.07650755354038      0.95471034635436
  C           0.02810695548204      0.25106382459512      1.96040631939249
  C          -1.18351618516450      0.91761331321665      1.59444337698620
  O          -1.81403937404642      0.24612136908901      0.30564664196884
  N           2.20588645378724     -0.67449000537694      1.30533463731482
  H           1.27554069451716      0.91706249699368      0.32738358234580
  H           0.02439798708957     -0.44977630095695      2.78130936555823
  H          -1.06572551765576      1.93525501720412      1.22543950572082
  H          -1.98228728260647      0.84876075622526      2.32472514759752
  F           0.91753578883153     -2.91778862466947      0.55664658412302
  F          -0.95858512843677     -2.20567903813070      1.32482325471794
  F          -0.84167960285353     -3.00141412971173     -0.66399311492470
  C           0.11552998271258      1.79762932555309     -2.02090327870788
  H          -1.98235492855618      1.30088752763593     -1.94473632939735
  H          -0.97714619645698      0.10541193476468     -2.77759221278422
  H           0.08504979286324      2.50027706801191     -1.19131347246917
  H           0.01074311263733      2.36210817955334     -2.94333056917384
  H           1.08428361381335      1.30452141879086     -2.03606725865059
  O           2.25019270345310     -1.23180046194275      2.36925669340160
  O           3.08495399182868     -0.65147477950823      0.47580756681654
