25
Coordinates from ORCA-job NEB_reactant E -51.416160514130
  C           1.21173637100605      0.07469981528792     -0.63474714973198
  C           1.49776201513125      1.22879835824031     -0.01644711165946
  C           1.67839359134791     -1.23575380917237     -0.10276167872029
  H           0.64657382390381      0.03841571913387     -1.54678127238046
  C           1.05609431541640      2.54251927955003     -0.59535584300219
  C           4.08582502718523      2.67431869030892      3.77554307414112
  C           3.29400733999930      1.87318015382859      3.07487463245553
  C           2.47462386381161      2.30271704227949      1.90543622686451
  O           2.24497741719279      1.16322335096864      1.10599629361538
  N           4.81944728474085      2.19154807373562      4.91223551652333
  H           4.25368177710746      3.72190489385755      3.57483159882391
  H           3.20715239859009      0.82857677380399      3.34907976118927
  H           2.98564010888220      3.09511909040574      1.34444299168402
  H           1.52034480351508      2.70281338059761      2.28499303635080
  F           1.21937359908049     -2.25893469282850     -0.84006563291293
  F           3.02074695659013     -1.35768347144181     -0.08633978169739
  F           1.27566723402747     -1.47074051334810      1.16088068110108
  C           2.14465922633973      3.12398923636855     -1.50328743746461
  H           0.81211161561827      3.25346454160813      0.19496534337086
  H           0.15533859992978      2.37404212869457     -1.18467917243662
  H           3.07374895929607      3.28359004772537     -0.96115818510814
  H           1.81662527760666      4.07573107622061     -1.91286948342492
  H           2.34712498379483      2.44209333663244     -2.32456383221892
  O           4.66705479203835      1.04092928274525      5.25060213773195
  O           5.54798861784821      2.99243821479757      5.45647528690617
