23
Coordinates from ORCA-job NEB E -52.483984887340
  C          -0.15179879037792      0.74332587827031     -0.65961379342035
  C           0.80504394477736     -0.21608156364632     -1.12485934264955
  C           0.26940357478124      2.14934807011449     -0.35377566545654
  H          -1.00233371940820      0.78944726413871     -1.33594272475764
  C           2.25163272860462     -0.18971502950585     -0.74864176402979
  C          -1.15453463153528     -0.22023052326345      0.67593941744389
  C          -1.04427294403208     -1.59078973308074      0.31089558746605
  C          -1.13302152182192     -1.92676712269141     -1.04137162959222
  O           0.34547762163891     -1.26341640105771     -1.67717470893271
  C          -0.81889215757660      0.02222364825819      2.13408186006603
  H          -2.09097756429843      0.27444150427488      0.43519534644772
  H          -0.39671867763911     -2.20710496386718      0.91969651947167
  H          -1.85177624295157     -1.40201229624709     -1.65907314617417
  H          -0.98914866886981     -2.95885831377293     -1.32498367981106
  Cl          1.05131940410028      2.83092062679211     -1.84387016643878
  Cl         -1.15854679997862      3.17211414850248     -0.04997683515237
  Cl          1.42013435793120      2.34619189797628      0.96528059027648
  H           2.75975634389472     -1.01165248695688     -1.24584323672182
  H           2.36134638881996     -0.30392084951922      0.32860226968506
  H           2.70990304335843      0.75109307004498     -1.04023854136282
  Cl         -1.13290751484306      1.67094626525813      2.69113276845885
  Cl         -1.89782727366299     -1.04094818609017      3.11190214218581
  Cl          0.84873909908888     -0.41855490393159      2.53263873299825
