23
Coordinates from ORCA-job NEB_reactant E -52.535485590030
  C           1.38006586608194     -0.51198835566678      0.00357832654640
  C           1.98168276237244     -1.58472740492279      0.54189765327087
  C           2.00712398641701      0.41094992864332     -0.96486519937487
  H           0.37087828734743     -0.24712150370827      0.27082903823588
  C           3.37545226200668     -2.03441271539525      0.24080556727246
  C          -1.05969009768427     -3.13059290609904      3.84771652313456
  C          -0.32249632487197     -3.29964002464047      2.76169739815879
  C           0.06219416339055     -2.18872437413441      1.83801008396497
  O           1.39688671676650     -2.41525789126622      1.42631337290011
  C          -1.49389857472279     -4.20760540581480      4.77413286740008
  H          -1.42174748967054     -2.15272952357031      4.13455315000500
  H           0.04890688562661     -4.27271623734936      2.47645390921235
  H          -0.02987075713486     -1.21406212241733      2.33267244241065
  H          -0.60419602307643     -2.20530190727690      0.96167954549491
  Cl          2.62899870728910     -0.42481452803373     -2.41866445315928
  Cl          0.82408934085947      1.61719502198915     -1.51426910716684
  Cl          3.38724057631597      1.31682423982974     -0.24375797131797
  H           3.68685492729002     -2.74052208160060      1.00544189872834
  H           4.06012247182261     -1.19264799142184      0.21575254225836
  H           3.40656837572872     -2.53105877849315     -0.72674238772552
  Cl         -3.28378563177642     -4.26825795398237      4.80137254478078
  Cl         -0.89331905485914     -5.81095944229723      4.34198739602963
  Cl         -0.92886137551863     -3.82282804237137      6.42730485894034
