18
Coordinates from ORCA-job NEB_product E -26.469042831300
  C           1.63747238192843     -1.35227942342011     -0.88203656481889
  C           2.68671111324914     -1.42983769381747      0.20171483021371
  C           2.03853124155124     -0.29315871567191     -1.91141988092085
  H           0.70977055298227     -1.03352514322913     -0.38736235432039
  H           2.97043255612207     -0.42845970060225      0.58464855466890
  C           1.37689677451816     -2.71865338606670     -1.55780423085483
  C           0.76767882776701     -3.71945423161979     -0.61022356045574
  C          -0.44162856638379     -4.22094430364327     -0.76916986578589
  O           3.18453676576484     -2.42421520197547      0.64100495193169
  C           2.61494959069283     -3.25010349557541     -2.08715606679034
  H           0.69719596154082     -2.56157258780591     -2.40571294869667
  H           1.39354155551199     -4.00594935692684      0.22192994035998
  H          -0.85355071073367     -4.93132709591396     -0.07363044136606
  H          -1.07278576401633     -3.94759897454650     -1.60035149288392
  H           1.24713780721342     -0.15742961773124     -2.64519415084812
  H           2.94388665367397     -0.59867891957531     -2.43244335965249
  H           2.22251927284822      0.66243330840992     -1.42561971759277
  N           3.58420398576940     -3.66624546028865     -2.52607364218732
