18
Coordinates from ORCA-job NEB_reactant E -26.459784913010
  C           1.85297317749599     -0.30926250726762     -0.10357112379096
  C           1.52560729302436     -1.20078632728676      0.82425406512705
  C           1.66137515719963     -0.31084097928935     -1.59201501256323
  H           2.32971139694038      0.58196064548454      0.27896471700709
  H           1.76745020510801     -0.99445621646817      1.85957050685870
  C           1.22175050953314     -4.05501678961044     -2.48534071411289
  C           1.45214254446403     -3.56118821076435     -1.26872103060531
  C           0.39472516543849     -2.94099354878036     -0.40642717040545
  O           0.89846737935467     -2.41036097115365      0.79526199788978
  C           2.23562443446824     -4.64433869298575     -3.26315697401897
  H           0.23995373115813     -4.02119038725384     -2.94081149576647
  H           2.44131862517624     -3.61103275173171     -0.83264586571989
  H          -0.30746001133988     -3.72276057659039     -0.08701183125525
  H          -0.17581100363528     -2.18718773529076     -0.96350852521745
  H           1.77849608467600     -1.29926483137009     -2.02936122097589
  H           2.39915860708307      0.34597055857363     -2.04787116414845
  H           0.67463861898922      0.07225549460822     -1.85895526843449
  N           3.05567808486555     -5.12280617282317     -3.90635388986792
