20
Coordinates from ORCA-job NEB E -37.754526042360
  C           0.23321686352948     -0.39144187869303     -0.93093864052947
  C          -0.93523852120578      0.25936093929702     -0.49707640109625
  C           0.31327253335237     -1.89733581231856     -0.79699015436966
  H           0.65687338704481     -0.04507995574673     -1.87007582908931
  C          -1.30322397689036      1.60845468387862     -1.07523523767153
  C           1.45145166644608      0.18146193993921      0.41137946134569
  C           0.82724944600355     -0.19388769514019      1.60228332446973
  C          -0.45433551899250      0.36979561110097      1.87665982999816
  O          -1.42286580305940     -0.06569823358474      0.67128513781723
  F           2.60741359960081     -0.44492956602879      0.10109908604177
  H           1.52218127880256      1.22786078405744      0.12629537041180
  H           1.07888033856672     -1.15894614491016      2.01557465291761
  H          -0.51472903119097      1.45382720020571      1.81991653797367
  H          -0.96788925709102     -0.02548604683225      2.74480006426129
  F          -0.19734988377480     -2.45922868918335     -1.94373782568495
  H          -0.30174342614765     -2.25443134299780      0.03426158700601
  H           1.34271473896964     -2.25670874985797     -0.71128853541009
  F          -0.32519617110345      2.54608990953261     -0.77662325480681
  H          -2.23550211801778      1.97216610146747     -0.63619905419181
  H          -1.37518014484231      1.57415694581453     -2.16539011939307
