21
Coordinates from ORCA-job NEB E -43.153650083430
  C           0.30584157944996      1.19641227550050      0.07484852337349
  C          -1.11847669656769      1.29655383829208      0.25409816607617
  I           0.97926193923170      1.90417039671512     -1.83599860321776
  H           0.91050269408970      1.69629440970008      0.82670233777236
  C          -1.67884954490017      1.70573685266998      1.52406932337948
  C           0.69972209056111     -0.45814733642461      0.18730488899626
  C          -0.19536143023200     -1.14093461384636     -0.69854116642095
  C          -1.59971286040026     -0.93695808388133     -0.52103340896746
  O          -1.88617914469681      0.60604133172516     -0.54747337088950
  O           2.06849837687072     -0.55670518585361      0.04797894718278
  H           0.46624157883938     -0.61524712210465      1.25049532302970
  H           0.15879852796153     -1.45657599902018     -1.66673352420602
  H          -1.99004056588576     -1.20703916761873      0.46169053520867
  H          -2.22568309937418     -1.32330164401425     -1.31871339839537
  Br         -0.84473894229647      3.20013772035791      2.36814271173347
  Br         -3.57436936005763      1.90745668757741      1.45677967322335
  Br         -1.37296685195291      0.01178246679560      3.00504832301453
  C           2.60123848761201     -1.31310488045513     -1.02005804657250
  H           3.67983979723847     -1.26650623722670     -0.88504058291336
  H           2.34737431754529     -0.89555655930452     -1.99820634865754
  H           2.26905910696401     -2.35450914958380     -0.96536030274982
