21
Coordinates from ORCA-job NEB_product E -43.182561752040
  C           3.00902062531152     -1.53791630002382      1.07720270767158
  C           1.66872923998450     -1.09595857254015      1.56318264881729
  I           3.22388404886661     -0.29628708991931     -0.69548832418943
  H           3.82169396578203     -1.25305433869227      1.74816719320131
  C           1.67291352890647     -0.09028377427524      2.70968653475224
  C           3.05299889568089     -3.07408694754442      0.85786564672450
  C           2.47485323270808     -3.49178283083037     -0.46395658107078
  C           1.32379339642204     -4.12386817245473     -0.58479170384554
  O           0.62027800091800     -1.52101236958245      1.16869538747995
  O           4.33237138616242     -3.57936237242079      1.14746385943929
  H           2.43197853593326     -3.50041988600739      1.65948024705670
  H           3.06041431951135     -3.23665682308290     -1.33616225480577
  H           0.72161429972057     -4.38421282884620      0.26939411311172
  H           0.93099699454732     -4.39282589262271     -1.54996872177204
  Br          2.98684525710245      1.31387438636524      2.58266965335494
  Br         -0.08597699499165      0.67204649643077      2.92978286536831
  Br          2.10219505344691     -1.22681446177968      4.26557146635005
  C           5.34779265029422     -3.40069920753396      0.17960750387137
  H           6.25800891577766     -3.76038321221465      0.65561045166764
  H           5.48190290296177     -2.35025646981184     -0.09387347656713
  H           5.15919174495358     -3.99203933261313     -0.72033921661621
