21
Coordinates from ORCA-job NEB_reactant E -43.187701715410
  C           2.22342876770544     -0.11876665268616      0.12801646010258
  C           1.63770602665186     -0.92733955292096      1.00862678119904
  I           2.07411492999363     -0.21112579604589     -1.95487839877364
  H           2.83396492060950      0.70282725699622      0.46284774835813
  C           1.85824967888665     -0.64217515575836      2.47972567918230
  C           3.13800948428171     -4.11861895937677      1.14214891978434
  C           2.70782942162501     -3.39796256244765      0.10714731922104
  C           1.25908672348433     -3.06904582900982     -0.05129694043469
  O           0.84910490256149     -1.99868439733990      0.82983180360310
  O           4.39153175059140     -4.45984441473178      1.46589377166602
  H           2.44109618914570     -4.52903815775990      1.86380664562289
  H           3.38734353844663     -2.97377398619974     -0.61533419273306
  H           0.61927227510200     -3.89367564298871      0.27029202996472
  H           1.01801431137250     -2.81026629399991     -1.08478884901380
  Br          1.47448986593833      1.20861734463377      2.94783960297024
  Br          0.76235962292775     -1.79118788791763      3.56895483923928
  Br          3.74353827309638     -1.00040299349023      2.93326200097634
  C           5.43995005956323     -3.97860394201422      0.65355177679729
  H           6.35877165265150     -4.36049137103688      1.09292449812725
  H           5.46452104765187     -2.88473698529940      0.65234429652046
  H           5.34291655771310     -4.34330402060607     -0.37311579237985
