18
Coordinates from ORCA-job NEB E -42.392978270930
  C           0.22830506956853      0.87459505382385     -0.22733324922438
  C          -0.41789063589804      0.38508587445694      1.06031279198312
  C           1.74834405418555      0.69358198508399     -0.19731872089686
  H           0.06473528274351      1.95064964077438     -0.33451345206690
  C          -0.86425684101903      1.34338121904783      1.96556593497792
  C          -0.42243734702644      0.04518506114449     -1.31566368134418
  C          -1.04321702437311     -1.10146900077383     -0.62701963352723
  C          -0.43775480297353     -1.78226261573869      0.54717851103677
  O          -0.12843832806962     -0.85170910090657      1.53865950167000
  I          -1.99985921530924      1.21966283026386     -2.30795900718200
  H           0.22837614274507     -0.22961810885142     -2.15565554115714
  H          -1.64846007167495     -1.74583201248780     -1.25343228771731
  H           0.43881747893887     -2.38667205333439      0.26156008085972
  H          -1.16299830505936     -2.47088497737010      0.99739371113444
  F           2.12403299802679     -0.59468133705788     -0.20164941794151
  F           2.31382054326943      1.24849612407740     -1.27943997988705
  F           2.30605038735978      1.26101700569378      0.87219511906653
  N          -1.32716938543422      2.14147441215416      2.65711932021606
