18
Coordinates from ORCA-job NEB_product E -42.435527622310
  C           1.27098573202652     -1.26244294042558     -0.76985593463762
  C           2.59216474848456     -1.68685430493435     -0.10701973553844
  C           1.51931828252590     -0.14238520971631     -1.78401412684602
  H           0.62450998532684     -0.81957891380821      0.00194368012549
  C           2.35970142641848     -2.70744483657655      0.90498755589577
  C           0.56030700476634     -2.49849780246186     -1.34502661137857
  C          -0.54527319973501     -2.20321158346643     -2.29801137782758
  C          -1.80345859927159     -2.51297543592333     -2.04222915894644
  O           3.66937179366652     -1.23298966497222     -0.35516808419397
  I           2.02248694529450     -3.81620255626970     -2.32061755707626
  H           0.18823684882789     -3.09285840693691     -0.50719960199666
  H          -0.26686129006736     -1.74036420888145     -3.23371732162739
  H          -2.10029024586053     -2.98964384899268     -1.12199825657774
  H          -2.58658353054327     -2.29640335924632     -2.74642512576444
  F           2.14418240747754     -0.54437565841027     -2.88763630442442
  F           0.35967916158540      0.41709461848037     -2.17508011277489
  F           2.23451579300879      0.84935796152445     -1.24738634309697
  N           2.15670673606847     -3.48402384898265      1.71955441668615
