18
Coordinates from ORCA-job NEB_reactant E -42.441346964910
  C           1.67868603937747      0.04670664646079      0.03912548664330
  C           1.07018644461803     -1.14903581587911     -0.07102873555315
  C           2.08401065038641      0.82068602139403     -1.17303402729916
  H           1.89789171203244      0.48849048345912      0.99453102698212
  C           0.70790012132445     -1.83697834126403      1.12727097726076
  C           0.31758051661618     -4.49561992971245     -3.22530182854318
  C          -0.03662065078669     -3.32447220745805     -2.73357240930761
  C           0.14786687985658     -2.95766149744733     -1.29411178471053
  O           0.80329301141241     -1.69478622522931     -1.26271722570665
  I           0.02654796460233     -5.02809554461654     -5.23031059845527
  H           0.76147279497727     -5.27905979211861     -2.63366779152010
  H          -0.46982987708858     -2.55045996838670     -3.34928305525697
  H           0.74302086082226     -3.71282252290210     -0.76511910377526
  H          -0.83347825359074     -2.87775540864671     -0.80290699551698
  F           2.98474661044375      0.16992122334116     -1.92986493547130
  F           1.04855421099292      1.10107557238794     -1.98294628947485
  F           2.63904847433034      1.99308682479384     -0.84160015691100
  N           0.41152248967317     -2.39811951817592      2.07973744661583
