29
Coordinates from ORCA-job NEB_product E -38.848454606090
  C           2.05352637769182     -1.41608269114738     -1.55641398558589
  C           0.84675878903369     -2.25281363422972     -1.14668167761921
  C           1.78437565239734      0.01087106721794     -1.03089339035096
  H           2.95208373032794     -1.81106031409938     -1.07269922245492
  C           1.03430806128749     -3.02875811805042      0.13936411637044
  C           2.23021847959380     -1.45362534225688     -3.08590978686918
  C           3.34655064732006     -0.56887745845787     -3.55195120196489
  C           3.18842510523931      0.45964542740908     -4.36305403550950
  O          -0.17686629365557     -2.26502144533372     -1.78004766334788
  C           2.51781640435748     -2.89377343529331     -3.52194131677961
  H           1.29057591024377     -1.13893620034947     -3.54985825149158
  H           4.33239453895649     -0.84869096307820     -3.20150418822223
  H           2.21829319289735      0.74235809025846     -4.73663189194557
  H           4.01941660661432      1.06044608706775     -4.69138838082191
  C           3.05440868639017      0.75665032821431     -0.64257356542308
  H           1.13472823087806     -0.05037971813992     -0.15335733989519
  H           1.24416965417575      0.57083669276732     -1.79465843894395
  H           3.59611931888293      0.21686005506028      0.13162805070490
  H           2.80153122753877      1.74155083718206     -0.25721963448778
  H           3.70647150405614      0.88166004234073     -1.50184016359785
  C          -0.26412001255751     -3.64260596495090      0.64457568705480
  H           1.46967712111336     -2.36501935146639      0.88970895510021
  H           1.76992209261400     -3.81280797321362     -0.06423696311807
  H          -0.98640181256253     -2.86183359500055      0.86898116089079
  H          -0.08711647089263     -4.22723253214570      1.54360646866959
  H          -0.69329304043073     -4.28743225272286     -0.11772188791430
  F           2.64414387622219     -2.96879476642059     -4.88595581211815
  H           1.69852404545474     -3.56505693842664     -3.24598564520615
  H           3.46265837681202     -3.25787593273442     -3.10103999512293
