29
Coordinates from ORCA-job NEB_reactant E -38.831561832830
  C           1.74113531418830     -0.06051196089700     -0.21479921106829
  C           2.19704137968787     -1.02747378491193     -1.00917836924340
  C           1.45092057992539      1.34277253701683     -0.64485423475000
  H           1.55197682632308     -0.29253811031690      0.82269156128789
  C           2.42839459350327     -2.42412055226587     -0.48596249963093
  C           1.62800697315966     -3.03654006796331     -3.87185963157550
  C           2.89945121585736     -2.73724904006662     -3.66906371435285
  C           3.36249034177664     -1.43723493818254     -3.07202750128312
  O           2.37232058772180     -0.74337751567257     -2.34769563975197
  C           1.13581511374584     -4.31112159403705     -4.47495987818226
  H           0.84750308966764     -2.34083001538107     -3.59633799521702
  H           3.68328275448508     -3.42368216848534     -3.95653950949728
  H           3.64029074593715     -0.75715950660195     -3.88869410525374
  H           4.26013818882497     -1.59958244826393     -2.46034174120465
  C           2.11275110985690      2.35840510092456      0.28435688105948
  H           0.36864827371246      1.50718797924866     -0.63757991608953
  H           1.80350839963649      1.48104344104402     -1.66715609772970
  H           1.75687488774887      2.23069751313250      1.30469333112487
  H           1.88522832755958      3.37279406555721     -0.03543045716440
  H           3.19271989566421      2.22879288101994      0.27968637836758
  C           1.10712021219361     -3.17933223292880     -0.32815082848207
  H           2.91976281231376     -2.35863077226619      0.48692464094754
  H           3.07550700959125     -2.99099938878799     -1.15481117881818
  H           0.44833685160424     -2.65207746458986      0.35691969103121
  H           1.28973076353506     -4.17862120062968      0.06103904396272
  H           0.60423561805741     -3.26832877991361     -1.28776273128107
  F           2.16340055277844     -5.15426429799914     -4.81706719984650
  H           0.56802528887729     -4.11405605127176     -5.39321629940620
  H           0.49858229206639     -4.86126162651062     -3.77022278795263
