31
Coordinates from ORCA-job P E -39.392269828570
  C          -1.57591480999524      0.05990289951879     -2.30427946882519
  C          -0.59800237001669     -1.50886086496122     -0.28145345447621
  C          -2.06014092609418     -1.57642559499710     -0.58217450540805
  C          -2.53451414772509     -0.82099908801127     -1.55950904653604
  C          -0.74508641872881      0.84844796482803     -1.27742384743299
  C          -0.14870119259619     -0.03366639440049     -0.15967438877415
  H          -2.68759299273679     -2.22498038232465      0.00928841574577
  H          -3.57717835043466     -0.77730164929840     -1.82601491783697
  N          -2.28498274149546      0.98057736385707     -3.17876667184813
  H          -0.35249955926184     -2.03762510693115      0.64008948422919
  H          -0.88526484696452     -0.58879705845917     -2.88506328707838
  H          -0.03675572894048     -1.97956856638128     -1.09454103821788
  H          -1.40958610393921      1.59469382113411     -0.83918956696410
  H          -0.52353547565749      0.33368358513285      0.80052687027755
  H           0.05480307759697      1.38316942713931     -1.79489975881664
  C           1.35698359159288      0.02805067877888     -0.13138480009196
  C          -2.74028063799889      0.36867974882415     -4.40930182774436
  H          -1.68272877679102      1.76872318852812     -3.39854581862561
  H          -3.44416444173304     -0.42866930218244     -4.17346989567914
  H          -1.92377327658821     -0.06547244030682     -5.00936531635044
  H          -3.25401755621773      1.11871490157660     -5.00819833533050
  C           2.03006920065557      0.35328491414002      1.03862858079775
  C           3.41320835117563      0.39342613876917      1.07471911912150
  C           4.14593500952901      0.10622147655000     -0.06313786318899
  C           3.48624597728842     -0.22167318596069     -1.23562776465939
  C           2.10462401859902     -0.26098389127958     -1.26767728410399
  H           1.46504285772502      0.57976766420233      1.93205256680231
  H           3.91934470841355      0.65034048189491      1.99400784787547
  H           5.22523303961778      0.13744576832526     -0.03780800609271
  H           4.05153119595033     -0.44826887876327     -2.12830300871734
  H           1.60166932577136     -0.51855761894208     -2.18884301205034
