31
Coordinates from ORCA-job R E -39.321113075290
  C          -0.34899013007432     -0.66711991836767     -2.78574984517866
  C           0.02680814346277     -3.50389752382004     -1.80868798232626
  C          -1.11070910926115     -2.81054465958292     -1.82196847998925
  C          -1.31071215796580     -1.45655722004769     -2.28026218674515
  C          -1.74021453634642      1.39761517989460      0.87575872026643
  C          -0.90601613032612      0.39108117076445      0.64419890383382
  H          -2.00456668134536     -3.28987861330339     -1.43902598115689
  H          -2.31665141084767     -1.07609323244938     -2.18325849931931
  N          -0.50893168278464      0.60317335891970     -3.27844716553435
  H           0.06281792383774     -4.51244617851509     -1.43387694175093
  H           0.66155992881957     -1.03535458202501     -2.88660475064311
  H           0.95623356843153     -3.09983153341472     -2.17068714363008
  H          -2.71504835371678      1.23081971348320      1.30133491487669
  H          -1.21408370455634     -0.61608111488798      0.89564234600235
  H          -1.49152280598949      2.42442123240156      0.66507904546836
  C           0.43230135145721      0.48362741044334      0.07311052070075
  C          -1.73254025139923      1.33410786869235     -3.05198489491544
  H           0.32702041466992      1.16735901386660     -3.25136738158916
  H          -1.96401759617801      1.44473158072472     -1.98575502848440
  H          -2.55800243195714      0.80794595265579     -3.53237812189260
  H          -1.64302335149441      2.32054672855213     -3.50232922956301
  C           0.93422310186473      1.65320129597937     -0.49876423927979
  C           2.20307397222215      1.68382123533501     -1.04549781484840
  C           3.00067674569921      0.55096705495992     -1.02768619964458
  C           2.51799766312172     -0.61542652962838     -0.45749705282628
  C           1.24735958498078     -0.64916301041856      0.08315896265690
  H           0.32508128780394      2.54429087969642     -0.52727293104859
  H           2.57460677129263      2.59710081704705     -1.48945131622012
  H           3.99146173973485      0.57827932174899     -1.45723703901460
  H           3.13367247415649     -1.50298223381510     -0.43958394519078
  H           0.87207566268765     -1.56598346488927      0.51359075698646
