25
Coordinates from ORCA-job NEB_reactant E -36.859317813810
  C           1.01060007427472      0.82532509123281     -0.03778867107689
  C           1.35267042208268      1.68502125727538     -0.99631183799989
  O           0.48284414779281      1.14149021244476      1.19783470082999
  H           1.12180603769807     -0.23546735668347     -0.23066732452773
  C           1.80112779930451      1.19557878227829     -2.34829502407141
  C           1.83772425088068      3.57591923943123      2.58400387793451
  C           2.05928808639890      3.52284815222207      1.27195754515754
  C           0.99796940023452      3.70835572155395      0.23484333158694
  O           1.30279846815000      3.05553109001375     -0.97562682970669
  C           2.86308781694582      3.38647385626501      3.52758950726713
  H           0.84978340863051      3.75209994824675      2.98858075253311
  H           3.05408003652016      3.33290396913507      0.88910306747203
  H           0.94056393920994      4.77043169359272     -0.03815295552311
  H           0.02271400562139      3.38932916173143      0.62052686154355
  C           0.81824991841904      0.23404796966439      2.21908159436367
  H           0.22637798668161      0.51365357814590      3.08894728165448
  H           1.88297912049112      0.29273418040457      2.47212176217204
  H           0.57658063876843     -0.79458345231985      1.92928173584490
  C           0.63803857338130      1.18126449448372     -3.34045431814523
  H           2.22189504650273      0.19440981343490     -2.25611504731326
  H           2.57561497809488      1.87070959710172     -2.71484091721845
  H          -0.14277996650435      0.50660427788630     -2.99786977095400
  H           0.97983589463389      0.85241725129257     -4.31876318451097
  H           0.21733732018657      2.17865789031569     -3.43520973905273
  N           3.69391259560007      3.22664358085035      4.30252360174046
