25
Coordinates from ORCA-job NEB_product E -36.863346067220
  C           1.33988841641000      2.08049510052976      0.09309880597660
  C           2.15429260723062      2.58419375814423     -1.10951818989102
  O           1.53940387962141      0.70709687357502      0.26484986590434
  H           0.27739766166717      2.28944204970837     -0.13112017650579
  C           2.76921295120158      1.53485300473913     -1.98774632010312
  C           1.72215224697300      2.95628813253227      1.33266382733699
  C           0.68239302857363      2.93490388043984      2.42301336676230
  C          -0.49564623146357      3.51925292387698      2.30357423253835
  O           2.25037463484526      3.76809803681775     -1.31401828579560
  C           3.00317473910115      2.52212385726756      1.83533281395726
  H           1.82804359753661      3.97936222183276      0.94666728947527
  H           0.95141876705689      2.41058138832026      3.33046543990226
  H          -0.77614539977196      4.05925637711393      1.41338482886637
  H          -1.22623479854789      3.48459475854565      3.09254936184582
  C           0.61758970016032      0.06399453551869      1.11044571185017
  H           0.75957307176751      0.34524819124927      2.15827442762357
  H           0.80207966110671     -1.00290370540116      0.99925622204387
  H          -0.41506564942718      0.29150811715885      0.81890521433040
  C           1.69338759930563      0.84041916636048     -2.82750269093856
  H           3.26601073043487      0.79993581284420     -1.35414142764757
  H           3.49588216593579      2.01861669934423     -2.64194990126498
  H           0.99165884122008      0.31458570669855     -2.18662969191891
  H           2.15959246560323      0.11976190424101     -3.49399013372220
  H           1.15141119411828      1.56793517375427     -3.42779152741744
  N           4.00215411934083      2.15585603478811      2.25192693679161
