19
Coordinates from ORCA-job P E -31.789917385360
  C          -1.33195180313634      0.43383853785294     -2.73408184653719
  C          -0.39202446447296     -1.48222830597044     -0.65857526579921
  C          -1.14399083700831     -1.89330483671192     -1.88653759432441
  C          -1.54794629367682     -1.04613696000134     -2.82375444486358
  C          -0.20420126850686      0.76926895450797     -1.74380497140965
  C          -0.45314274721675      0.02323506322133     -0.44451906774823
  H          -1.31172974716917     -2.95540778610209     -1.99626900885039
  H          -2.06545380288485     -1.40457434787626     -3.70349824037009
  C          -2.59669488042854      1.18776878393872     -2.28653285810521
  H          -0.78476776570729     -2.00855764512924      0.21543155744263
  H          -1.06678585023282      0.84060015773861     -3.71516632678398
  H           0.65072805234589     -1.79818322169202     -0.77568245455845
  H          -0.18017289753790      1.84750823727910     -1.57490643705971
  H          -1.41051858599019      0.32091835675997     -0.00944438710209
  H           0.75586187408836      0.46240467205843     -2.16477350528009
  Br          0.89203497672953      0.54756742036202      0.89756106180372
  O          -2.67713357290629      2.37942538619936     -2.32260306199550
  O          -3.59563410310347      0.43046425291433     -1.81721425522946
  H          -3.38045628318523     -0.51681671934947     -1.86370889322912
