19
Coordinates from ORCA-job R E -31.692815170230
  C          -1.24147943920956     -0.33009117488948     -2.88373566393965
  C           0.12728300966152     -2.94917013830785     -2.28982434859875
  C          -1.18174913985141     -2.72242618254266     -2.22480238225478
  C          -1.82902878499160     -1.44322209710791     -2.42329599654846
  C          -0.79087831757439      2.39603809106013      0.12852702344311
  C          -0.41390390832978      1.30518299431933      0.75824920268694
  H          -1.85083106213952     -3.53816228208468     -1.98391510858805
  H          -2.87687395868082     -1.42592314498691     -2.13676317201462
  C          -1.89408782524990      0.98657249565801     -2.98873208868026
  H           0.52747607418224     -3.93355946564330     -2.12229312940448
  H          -0.18983595265438     -0.31369146458849     -3.12203988156877
  H           0.83831660385047     -2.16621930086568     -2.48305110930515
  H          -1.47111504645087      3.08836313021294      0.59672959255860
  H          -0.72606451827560      1.01726603135523      1.74767440920619
  H          -0.46057943026193      2.63365579597438     -0.86908910455177
  Br          0.76627556473589      0.03767020770916     -0.00270396169238
  O          -1.27713013503679      2.01983758566695     -2.97362784255643
  O          -3.23897188372427      1.00190515397842     -3.08427482066178
  H          -3.60815184999929      0.11102376508244     -3.13911161752951
