19
Coordinates from ORCA-job TS E -31.675139849380
  C          -0.28060005624558      0.37411383622054     -1.00025039741037
  C           1.12220842279666     -1.71101519817597      0.34923950402624
  C          -0.20127631914429     -1.80883079233732      0.05796197952986
  C          -0.89288339616152     -0.79541910280615     -0.63414532436049
  C           0.28560829465657      1.10311422821519      1.05997201563705
  C           1.10940033942961      0.19874583971801      1.64502043697222
  H          -0.79452708366862     -2.58276131773777      0.52556027764858
  H          -1.97346465590333     -0.88537118985810     -0.65714479873714
  C          -0.96905884672049      1.56424888692228     -1.56016301482171
  H           1.59396526050616     -2.43788212880915      0.99039106909037
  H           0.78307170860000      0.40124192088178     -1.17550659591560
  H           1.79066600213696     -1.15140544768095     -0.27954208558301
  H          -0.75236059569405      1.12370246611883      1.34531975993114
  H           0.79706352347251     -0.46936130390580      2.42889248408403
  H           0.67244180190077      1.98293052753219      0.57549997171561
  Br          2.99745982261410      0.47911048723245      1.63429293039995
  O          -0.39481849565990      2.60459542624635     -1.74011777291805
  O          -2.27796380401342      1.45271431275138     -1.84940448481865
  H          -2.61493192290214      0.55752854947223     -1.71587595447003
