29
Coordinates from ORCA-job TS E -35.870231618940
  C          -0.16572476699346     -0.50123568085106     -0.62126018708590
  C           1.33221670226951     -2.58451324053770      0.65176005294598
  C           0.00328757083511     -2.70463627679687      0.38626494344850
  C          -0.73633837665696     -1.68488371617997     -0.23939314141381
  C           0.53657617720762      0.14699866970326      1.49637680922104
  C           1.37334178340422     -0.78664263141926      2.01942325745903
  H          -0.55495976820242     -3.51051955666899      0.84465327236656
  H          -1.81233305870978     -1.78692907865070     -0.25355132990376
  C          -0.90920654882597      0.64968557745138     -1.11108712634358
  H           1.83214939441472     -3.34129880510467      1.23512218757964
  H           0.88904510988838     -0.48466247833736     -0.85088470933028
  H           1.97232691143969     -1.99218031549745      0.02488779798157
  H          -0.49912620308621      0.18586590892628      1.78136217995829
  H           0.99967880579093     -1.46242029929049      2.77486376637231
  H           0.92847799744316      1.02235118605412      1.00777971119078
  C           2.86296637331553     -0.58765652827518      2.00279334017107
  C          -2.24398577298352      0.88025183194199     -0.77222495781797
  C          -2.91362166594541      1.99029952170087     -1.24860222338743
  C          -2.26666602155261      2.90010162332795     -2.06901452000738
  C          -0.93858337833366      2.69353708422991     -2.40430311955962
  C          -0.26745171025885      1.58548205915332     -1.92600913780511
  H          -2.75783318603188      0.18997290577553     -0.12008942379005
  H          -3.94674516799673      2.15159929064667     -0.97555897469852
  H          -2.79245325020463      3.76771760306286     -2.43950407306654
  H          -0.42524796694295      3.40166272779059     -3.03901195103127
  H           0.76922080111327      1.43041356628855     -2.19229794319520
  H           3.17775906258606     -0.06512014842100      1.10203273111981
  H           3.40320362942874     -1.52802783997341      2.07556251392774
  H           3.15002652358812      0.02478703995082      2.85991025469408
