24
Coordinates from ORCA-job P E -31.901823050460
  C          -1.46172307565632      0.43565465576160     -2.34967592114143
  C          -0.11630499203827     -1.60065925365407     -1.10699075740881
  C          -1.47043690772733     -1.88489338673018     -1.66539984099670
  C          -2.11544153620020     -0.91188881030599     -2.29085117799506
  C          -0.99682550548578      0.80030287533707     -0.92986961661138
  C          -0.10433219217594     -0.27940335343834     -0.28962490323256
  H          -1.88283586110254     -2.87570411653099     -1.55519590894869
  H          -3.09510680469702     -1.03941367277571     -2.72389229743076
  C          -2.40232100110828      1.49406504216780     -2.91031659585648
  H           0.23817201852224     -2.42098548460360     -0.48103777667748
  H          -0.58217257445985      0.38584370592584     -3.00446791493346
  H           0.58183342005907     -1.48816798632713     -1.94209561546389
  H          -1.88676500850287      0.93858510843819     -0.31359555111230
  H          -0.51245579430766     -0.50853594273361      0.70167583693200
  H          -0.45807146379053      1.74705326745773     -0.94348293693176
  N           1.22804204024239      0.24584257696219     -0.03479647661102
  F          -1.73809759490860      2.68519646590535     -3.08940992815968
  H          -3.23319533913495      1.69718775539646     -2.22646671737948
  H          -2.78842441805135      1.20298355014337     -3.89323659758602
  C           2.04647257913668      0.58239839156577     -1.18219509748910
  H           1.73781371605996     -0.39516925401979      0.56430051780529
  H           1.50214312011137      1.26553013664794     -1.83107919054678
  H           2.37196262758790     -0.28113784999675     -1.78090446384659
  H           2.93715054762789      1.09502557940685     -0.81981106837785
