24
Coordinates from ORCA-job R E -31.821363893550
  C          -1.26506854526997     -0.21331060366919     -2.92761738730996
  C           0.07668996407412     -2.78976657211865     -2.08887653699899
  C          -1.14467095168102     -2.38805789778031     -1.75125038705079
  C          -1.71698398315246     -1.08146866843800     -2.02543379166310
  C          -0.95352557595715      1.91043521476030      0.21790832887256
  C          -0.45052906275203      0.68148591258253      0.29670167494478
  H          -1.78435049955842     -3.06049257426592     -1.19371177653606
  H          -2.58803830420406     -0.81850949693413     -1.43896009761501
  C          -1.87121820905759      1.13226857437280     -3.14979259200700
  H           0.43426936763263     -3.77440444061132     -1.84208092888868
  H          -0.42130378371975     -0.44359355140341     -3.56125551406995
  H           0.76371434952983     -2.15516679792417     -2.62330575119802
  H          -1.88369629254078      2.15129822127928      0.69909180160626
  H          -0.98846308938211     -0.09221117096963      0.82993201044172
  H          -0.45148195857974      2.71440090947567     -0.28838463576172
  N           0.76863795634610      0.25342310844693     -0.17866271048852
  F          -1.05230713343180      1.90282850422518     -3.94166218499702
  H          -2.00047994332685      1.67424543685592     -2.20391177778643
  H          -2.83430079194319      1.06590787354807     -3.67211683058908
  C           1.53706609753265      1.09931898213899     -1.06030347904960
  H           0.79766649019117     -0.72784762324123     -0.41330251993976
  H           1.78203691387939      2.02504817325957     -0.53922428721815
  H           1.00364933389008      1.35356886675136     -1.98389315572016
  H           2.46493765148096      0.59151961965936     -1.31627747097733
