22
Coordinates from ORCA-job NEB_product E -50.489964144000
  C           2.81193919583940      0.41378066136539     -1.18977026849511
  C           1.48620328773032     -0.28025187975085     -1.09725946382858
  C           2.98867574668748      1.28410397218683      0.06128620099282
  H           3.60621929466003     -0.34545323092649     -1.19216635740683
  N           1.32382041033324     -1.45461405784978     -2.09824353073172
  C           2.84125633978866      1.13736322865808     -2.56878475312955
  C           1.59745969912377      1.96299633963390     -2.76818429741441
  C           0.79129243692688      1.81033125719481     -3.80220642987655
  O           0.57003538961471     -0.05689185645552     -0.38343162857134
  C           4.09227653620694      1.97512498671160     -2.84180493283039
  H           2.86552855864519      0.34351454156314     -3.32854553357612
  H           1.39329692785925      2.71016665952738     -2.01445046622146
  H           0.97700032236920      1.07975203367384     -4.57307783992747
  H          -0.08825487575053      2.41731319696957     -3.92113583359276
  F           4.31351736024255      1.53645300288413      0.27017137792422
  H           2.62554674504322      0.74488532352584      0.94229106835260
  H           2.47529005876013      2.24647811150659     -0.01116964058968
  O           0.23045402794612     -1.93928676748746     -2.14632304007905
  O           2.30094444162444     -1.76846619119110     -2.73429316432748
  Br          4.09093407296593      2.41909551193475     -4.75932253986736
  Br          4.16200400337628      3.67089180614176     -1.89423525454161
  Br          5.73016002000676      0.97121335018359     -2.48794367226216
