18
Coordinates from ORCA-job P E -25.397216111120
  C          -1.36927892230573      0.58095948611804     -2.17880621519317
  C          -0.54450277858273     -1.75786004213696     -0.56578151749822
  C          -1.32104611780476     -1.86303058589944     -1.83970941248759
  C          -1.69581741422536     -0.82200849487555     -2.56385663478189
  C          -1.00696998499508      0.69359771799389     -0.70569338401064
  C           0.04952418225415     -0.36082472389481     -0.36124884761336
  H          -1.57324235946486     -2.86527578542072     -2.15624790652850
  H          -2.24479929443940     -0.94823250608431     -3.48510936497094
  Cl         -2.78095219973513      1.64184023533057     -2.52270346447593
  H          -1.20349509394227     -1.99944117063808      0.27410743009023
  H          -0.55811290473234      0.96221853819382     -2.80588825654603
  H           0.25744386833019     -2.50065373542448     -0.56994125287583
  H          -1.89566692397543      0.51948328021411     -0.09711663589220
  H           0.31685158373304     -0.24696875441913      0.70794213525395
  H          -0.63236112202268      1.69547310653411     -0.48803329690668
  N           1.19916351432991     -0.18731769523747     -1.23703997031586
  H           1.60392592763629      0.73389486680846     -1.11066342382707
  H           1.91452603994220     -0.87427373716207     -1.02731998142027
