21
Coordinates from ORCA-job NEB E -53.937640391170
  C          -0.11903650160232      0.66393304583758     -0.71319844449964
  C           0.48426161952336     -0.58049033940552     -0.97959251708561
  C           0.58012785517138      1.97481429002831     -0.56919669158363
  H          -1.04567933420195      0.77044159658446     -1.26748794976172
  C           1.95229427669083     -0.88782280300063     -0.62719274764413
  C          -1.14872717685326      0.29336682918146      1.06925525544121
  C          -1.11653508353353     -1.11407338224865      1.15134896081172
  C          -1.60481875114796     -1.89339133108408      0.13863565190773
  O          -0.23320830144243     -1.57400037535977     -1.22736791586034
  O          -0.52881646719652      0.96688626524251      2.04192235615551
  H          -2.03203174668059      0.76182375536983      0.64399417956849
  H          -0.40192076561819     -1.52484400311551      1.85159265329538
  H          -2.37923738979933     -1.52228470812028     -0.51315717799203
  H          -1.50086361188438     -2.96391574937553      0.18063666947713
  Cl          1.26603884328711      2.47361366494232     -2.15777222167816
  Cl         -0.63251524870061      3.22794312744637     -0.12384982454293
  Cl          1.86792313481133      2.02649047171418      0.64667419751261
  F           2.16514950904535     -0.89276051072233      0.70127724033422
  F           2.29098379548217     -2.10004280281072     -1.06777810540834
  F           2.82618177269871     -0.02589839986106     -1.16442016887625
  H          -0.68957042804917      1.92021135875706      1.98567660042878
