21
Coordinates from ORCA-job NEB_product E -53.963145471820
  C           1.05762624533366     -1.19050281679527      0.65692798020752
  C           2.17365314590828     -2.22051765496843      0.57030071212173
  C           1.48006158220726      0.23860322195872      0.29977125199046
  H           0.33555936081258     -1.50774223887199     -0.10537865829074
  C           3.49334550873975     -2.07214588902955      1.38512317460539
  C           0.35095741161494     -1.30708928717752      2.03680901093045
  C          -0.49963303964690     -2.55022813153608      2.06074359552679
  C          -1.81776306883892     -2.52982172425240      2.01877643156876
  O           2.04730842113417     -3.22357332201880     -0.06861097053791
  O           1.35729502634530     -1.34044588424355      3.01884417242986
  H          -0.28744781800467     -0.41723035531916      2.15583283912027
  H           0.05403445988013     -3.47575954259529      2.13099905146672
  H          -2.36883608428150     -1.60587644235510      1.95122902066741
  H          -2.39803444903253     -3.43520670543011      2.04210578954018
  Cl          2.84271198306245      0.15215957995726     -0.85883600244844
  Cl          0.10944525679540      1.03837292383057     -0.51702274012909
  Cl          1.93508420932631      1.25550315005461      1.66818832785142
  F           3.76266914291980     -0.87875075825689      1.89664735264666
  F           3.48827579450605     -2.95398675577679      2.39113915301437
  F           4.52630210402664     -2.39180871661721      0.59239093625010
  H           0.95748480719178     -1.37025265055700      3.89441957146810
