17
Coordinates from ORCA-job NEB E -26.257611931240
  C          -1.01985314408602      0.52525950620373      0.66147809821242
  C           0.31356350744534      0.87964531827818      0.85256386740417
  N          -1.56103161970313     -0.66234584733427      1.17024066808198
  H          -1.72998542041095      1.33232702160826      0.53785392519120
  O           0.66560317285819      2.16779499591973      0.51949889237978
  C          -0.63500847686134     -0.08445400195170     -1.29943719791442
  C           0.30735766436294     -1.06534679173515     -1.09426876881055
  C           1.57745668732818     -0.67710469441207     -0.59331862184654
  O           1.24426209219976     -0.01151347591324      0.92056710284652
  H          -1.63741618417120     -0.36583260526677     -1.57892290985750
  H          -0.32477129424625      0.89122521979042     -1.64524887776622
  H          -0.02468215635206     -2.07595206661052     -0.90801161949134
  H           2.04667235944456      0.17974666816630     -1.06842775120263
  H           2.28167752270416     -1.45524294344757     -0.33183005241206
  H          -2.29426438449954     -0.51760661143268      1.84915979246287
  H          -0.83922651342924     -1.27717412493038      1.52457013564676
  H           1.62964618741661      2.21657443306773      0.48353331707558
