17
Coordinates from ORCA-job NEB_product E -26.305161760560
  C           2.87682590545458     -0.61033834029371     -0.84146086174713
  C           1.44702541944207     -1.03992382541125     -0.47902070903536
  N           3.04881527120065      0.82690534382791     -0.77724353017303
  H           3.56303825392481     -1.05639339701890     -0.10726633852759
  O           1.21743512435696     -2.36266507692371     -0.46642817330617
  C           3.24557086456135     -1.12509414425278     -2.25180189462035
  C           2.13078854446160     -0.90806285642183     -3.22867128317715
  C           1.48971745000854     -1.87868910552320     -3.85131357307924
  O           0.58589557235889     -0.25427102531379     -0.20610182269430
  H           4.12898235573871     -0.56686229333196     -2.56879917106012
  H           3.50715164142542     -2.18569910162278     -2.21632217112915
  H           1.85595024314875      0.12333741203385     -3.40034980365083
  H           1.74199246928809     -2.91711468258484     -3.70499185759856
  H           0.68845066970465     -1.68013179159006     -4.54115990304128
  H           2.84881962076406      1.15881652468474      0.16061216189952
  H           2.37603755764179      1.27716406019457     -1.39025270758893
  H           1.98740303651908     -2.87347770045226     -0.74802836147034
