21
Coordinates from ORCA-job NEB E -46.396323938620
  C           0.61716350662988      1.07526920779739      0.07014360886412
  C           0.38524360645669      0.74724557534126      1.31934646952975
  C           1.54870200109933      1.70496291654485     -0.83582122913554
  H          -1.37574199569796      0.24751834481685     -1.01212570526264
  C           1.45437053339744      0.99070489495278      2.24808403005704
  C          -0.71056452221503     -1.64833633927806     -0.34890782159810
  C          -1.68618418318204     -0.53998143926591     -0.32139560655206
  C          -1.87147661733095      0.04780450359446      1.09821429761140
  O          -0.69778346812112      0.16071110895616      1.87128228183667
  C           0.41302165985906     -1.71428757592606     -1.28433915353424
  H          -0.82853971191176     -2.49640601816376      0.30158273745737
  H          -2.68204860841454     -0.89029737624532     -0.62697687032076
  H          -2.50783031308086     -0.60853315717395      1.69535705862661
  H          -2.34830500490585      1.03267059237206      1.00847609907844
  F           1.53402523756767      3.07744555976863     -0.71476986277332
  H           1.29996622549733      1.48160977231346     -1.88339794599496
  H           2.58236781008604      1.37276583309022     -0.64267717610639
  N           2.35808528308232      1.19798343310636      2.91790691820978
  F           0.34469185848498     -0.81461693077481     -2.28420317558696
  F           1.63865979265528     -1.49950197358695     -0.70796394104189
  F           0.53217691004408     -2.92473093223967     -1.86781501336433
