20
Coordinates from ORCA-job NEB E -33.519309288320
  C          -0.95934600460467      0.33290265143285     -0.67092630244984
  C          -1.84182669055399     -0.20131209493199      0.27607802251994
  C          -0.39597356312253     -0.56533853422331     -1.75422009159972
  H          -1.23892270838881      1.30156726655155     -1.07796953854693
  H          -2.52459241652398      0.48307632945822      0.78955633092557
  C           0.52303306681704      0.69523296829476      0.48388173324224
  C           0.74712928612815     -0.53673700643554      1.11385769869163
  C          -0.29465748453973     -1.09595873220841      1.90297458038443
  O          -1.53727986179317     -1.31142178938093      0.87540072262454
  C           1.62918667347434      1.28023601182515     -0.36839103646875
  H           0.04050754638891      1.47220357738564      1.06954687301419
  H           1.46430822526033     -1.21218265944206      0.67112357620999
  H          -0.75072498520852     -0.44134719385472      2.64184974797446
  H          -0.12957221846376     -2.09649731695403      2.28279572866720
  F           0.09202457530209      0.20204513644249     -2.78312868205934
  H          -1.19624311499519     -1.18011203449490     -2.18141212636666
  H           0.41735171575033     -1.21039784708967     -1.41587561780726
  F           2.43633339345289      0.30624733503336     -0.89421750064802
  H           2.27500489128285      1.91590842877540      0.25032097205409
  H           1.24425967433741      1.86188550381614     -1.21124509036174
