19
Coordinates from ORCA-job NEB E -36.469275209270
  C          -0.06882273192012      1.34175122517405      1.52658809435775
  C           0.01093171460024      0.08458114659125      1.89139108138184
  C          -0.65973444745927      1.80206954644870      0.22185495079413
  H           0.22679444487176      2.18676754331205      2.14533940000508
  N          -0.24959150610947     -0.93223511739578      2.81321883522775
  C           0.96008987137730     -1.08561160897622     -2.93315479969811
  C           0.87516339327285     -0.51756015429856     -1.73225794577255
  C          -0.14230031694749     -0.99848592271997     -0.74194002122401
  O           0.33865434672477     -0.95349933618959      0.54095692530179
  H           1.62372769116902     -0.67003827828689     -3.66639830719730
  H           0.30449851005405     -1.89282624428033     -3.21223000605603
  H           1.76322373996358     -0.00768276288760     -1.40244774776280
  H          -0.46707754292045     -2.03381880928275     -0.90571441879598
  H          -1.03031428578433     -0.38804117503091     -0.93770699166313
  F          -1.15732876103139      3.43130531193807      0.41026609432535
  H          -1.63109176668716      1.34763470227823      0.08953848372968
  H           0.08264876728076      1.89728291218723     -0.56624327700144
  O           0.12065088056693     -2.06197872535005      2.66457738761534
  O          -0.90012200102162     -0.54961425323092      3.79436226243263
