19
Coordinates from ORCA-job NEB_product E -36.627611159440
  C           2.74123904966935     -0.27125209815403     -0.85637738371096
  C           1.45755005784877     -0.89534891869424     -0.42919444920933
  C           2.70042030639232      1.23548565030028     -0.59135610124259
  H           3.56177259395566     -0.71276855835496     -0.27945338883482
  N           1.48629638995655     -2.44080086177823     -0.50972287182602
  C           2.98017740134983     -0.59497262988143     -2.35501483200215
  C           1.70814843095256     -0.50923184184088     -3.14542298316511
  C           1.16712512872110     -1.53525339109020     -3.77482068638971
  O           0.44700384139712     -0.39389669778064     -0.06847161533259
  H           3.71119810590450      0.12262605600917     -2.73408129673051
  H           3.40472619710941     -1.59553983365040     -2.44382896369633
  H           1.23003297634278      0.46077099674130     -3.17242702671796
  H           1.62438892579487     -2.51162735569515     -3.76827807928577
  H           0.25006735904180     -1.44348629710773     -4.32960675093549
  F           3.93910838667942      1.77030018307763     -0.82183186891334
  H           2.44434105633414      1.44881070496079      0.45115742403847
  H           1.99814821505761      1.74491236632923     -1.25702689326182
  O           0.41410892469870     -2.97862596282865     -0.51287088757547
  O           2.57114665279352     -2.96830151056183     -0.55427134520849
