20
Coordinates from ORCA-job NEB_reactant E -48.498527812440
  C           1.73133341040456      0.12189658062946      0.37267579131382
  C           1.32886834023005      1.29381382805609     -0.12691726501946
  C           1.83801669530340     -0.34122952649243      1.78453090789705
  H           2.09669695573407     -0.57955088318035     -0.35951002122637
  F           1.43671916179473      1.42644667827551     -1.45937200033960
  C           1.31207199063515      2.50207487741166      3.92694350503894
  C           1.43605455964055      2.79930283835506      2.64355751725599
  C           0.33606014746205      2.59501252977256      1.64943956369121
  O           0.80872560892681      2.42432041577465      0.32415768064625
  C           2.34434755708269      2.69508402643793      4.96526197313371
  H           0.39442269086183      2.07059036776587      4.30909418653320
  H           2.34725963483507      3.21907095431460      2.23898116088491
  H          -0.26152690060985      3.51288080914788      1.58956967451138
  H          -0.32214974373204      1.77106463190088      1.94127585795224
  F           2.77563987054578      0.35861965044237      2.48504716807279
  F           0.68438982954918     -0.19905341571375      2.49688208414064
  H           2.12145064634771     -1.40126965149793      1.83886801259684
  Br          1.66644344042441      3.98968660072405      6.30225572689154
  Br          2.67002324428964      0.99967586070258      5.89755877439213
  Br          4.04305286027419      3.35656282717331      4.31709970163278
