20
Coordinates from ORCA-job NEB_product E -48.510761594940
  C           2.12663719788439      1.23939405117945      1.45103673757397
  C           1.17261866084592      1.36839347660315      0.28604526547185
  C           2.41353871986456     -0.25364039824286      1.67663752468973
  H           3.08338213696714      1.68539909219371      1.14044818984989
  F           0.92863668701492      2.67157392048581      0.00791315581431
  C           1.55742871054260      2.08506840928662      2.62357631997019
  C           0.15027089466193      1.67882323402615      2.98309918704126
  C          -0.87632487909684      2.49915032844293      2.86182252443721
  O           0.67797731529429      0.52349760230719     -0.36524102142618
  C           2.42803267325051      2.15046208037600      3.88006078025592
  H           1.52583805208731      3.11674097778193      2.24254956311779
  H           0.01848543583637      0.67483286825395      3.35747219113783
  H          -0.76949531586753      3.50657119799130      2.49286723951169
  H          -1.87116491777416      2.18961426805674      3.12801289020215
  F           3.56074386993915     -0.41430181503963      2.36987759387766
  F           1.44532153908134     -0.87861914582937      2.37134282274747
  H           2.52590666995699     -0.77753532586063      0.71415574128213
  Br          1.74285238887270      3.62763241271261      4.98375930060435
  Br          2.40194441519441      0.56406918380888      4.99757920115403
  Br          4.28926974544401      2.59037358146608      3.44228479268673
