15
Coordinates from ORCA-job NEB_product E -30.678337739290
  C           1.44183391117362     -1.56328481821941     -0.15626129383026
  C           2.71794780467614     -0.89501737673825      0.37613610225547
  Br          0.95015484165945     -0.73442357283708     -1.83232190209161
  H           0.61692502620837     -1.38826255703451      0.54374151274809
  O           3.14379254562813     -1.37823870800002      1.54364827119312
  C           1.62010028688366     -3.07680621039105     -0.37079910322385
  C           2.87250139726719     -3.39010736409568     -1.13142022042390
  C           2.88745494346488     -3.61399636723934     -2.43106396991567
  O           3.27718487565999     -0.01186912878425     -0.19445952173462
  F           1.67036678335973     -3.65696311314702      0.89234245570342
  H           0.73194928203711     -3.49016200034131     -0.86307963444387
  H           3.77803980370950     -3.38806215439820     -0.54075524420115
  H           1.98620524758350     -3.60829145825544     -3.02151486674445
  H           3.80768083560194     -3.79599958271984     -2.95653820675561
  H           2.64906241508679     -2.14651558779859      1.86884562146490
