15
Coordinates from ORCA-job NEB_reactant E -30.660092287880
  C           1.35845297913612     -0.32851590314156      0.02900357100156
  C           2.26754434391209     -1.26471250143286     -0.25326129531426
  Br          0.14358229678463      0.24784157912926     -1.29454650148861
  H           1.26649484247713      0.15404504707170      0.98379538548895
  O           3.16301378595617     -1.73086074176554      0.65496506233419
  C           1.51773630927468     -4.33829343163275     -0.59392691130082
  C           2.73724548260558     -4.16658977038610     -1.06534656652545
  C           3.22579504077565     -2.88896924615262     -1.67632693906047
  O           2.35024606653011     -1.79368964508913     -1.48459875339817
  F           1.13483943266796     -5.50387360326360     -0.05175317617079
  H           0.72084041129558     -3.60907674695608     -0.58916814665190
  H           3.45389581729492     -4.97255989170494     -1.02697506642878
  H           3.29512319390064     -2.99597171387488     -2.76378750652189
  H           4.22179167839161     -2.65364021782415     -1.28209472421832
  H           3.04179831899710     -1.29513321297677      1.50532156825476
