21
Coordinates from ORCA-job NEB_product E -37.629707150230
  C           2.26609198051920      1.83362806998439     -0.74386090701011
  C           1.01272423774862      1.57352421729063     -1.55289648789809
  O           2.20349073558786      1.11810582439125      0.45731123381116
  H           3.16061208179480      1.48682515252336     -1.26734487526256
  C           1.13637253020387      1.47445027148489     -3.08882190882829
  C           2.37653182420793      3.36884561544182     -0.47765804111503
  C           3.55487225204216      3.58933187095177      0.42349329720461
  C           3.46652468111790      4.02081541336170      1.66670674168617
  O          -0.06471226228427      1.43318707249064     -1.03743787874599
  C           2.53654693256577      4.17328603775968     -1.76573784456796
  H           1.46154066468895      3.67818650049456      0.04042807570854
  H           4.51572982861731      3.36514784353987     -0.01858526043131
  H           2.51747902745333      4.24438782772789      2.12627046779544
  H           4.33860216163990      4.17330386905955      2.27855261809504
  H           1.33158026737145      1.26046521392399      0.85148656752967
  F           0.43494110092601      2.46523874259264     -3.68503923676793
  F           2.41074436359145      1.58589728939360     -3.52126031597448
  H           0.73248229235152      0.51162941213386     -3.44279162912785
  H           3.36035136666973      3.78824105427020     -2.36218267980400
  H           2.74988924381790      5.21037549521085     -1.51618479616691
  H           1.62930468936860      4.15332720597287     -2.36334714013010
