21
Coordinates from ORCA-job NEB E -44.259192613540
  C           0.69536037266916     -0.75563938153870     -0.15244920190709
  C          -0.24555470670523     -0.78556556514815     -1.20801875933462
  C           0.45319555015795     -1.62203767274121      1.06461977347623
  H           1.74572797237018     -0.78698998855125     -0.42777471353180
  N           0.17695082518825     -0.48680526756851     -2.48373541020275
  C           0.36903529127309      1.07904020925098      0.40666886441598
  C          -1.00270334625191      1.14656042927596      0.66779455264027
  C          -1.87438087464758      0.85424783400096     -0.41560799455882
  O          -1.50512505485339     -0.65845043078145     -0.95097820996558
  N           1.29726051229637      1.31156278406647      1.50867123166150
  H           0.76819074711746      1.51297420202488     -0.50705661665454
  H          -1.33411641099024      0.98254796953311      1.68108416366061
  H          -1.69753234287227      1.40494124471042     -1.33684344960362
  H          -2.92504086065406      0.75733675271406     -0.17582089742566
  F           1.39816996659438     -1.38469517194795      2.00517310823685
  F          -0.73905630106116     -1.42795803276798      1.65793480197020
  H           0.52009168384638     -2.69528605355280      0.80861744527036
  H          -0.52849560699832     -0.51845566209055     -3.20204627232386
  H           1.10636026951745     -0.75026801368582     -2.76200038069080
  O           2.46089144299743      1.43364160543591      1.19462626817960
  O           0.86077087100606      1.38929820936164      2.62714169668753
