21
Coordinates from ORCA-job NEB_product E -44.323030837850
  C           2.19070028515502      1.57989387797528      0.52683162799104
  C           2.39095243660151      1.37922006116631     -0.99155258741486
  C           1.36315072690495      0.41020413345876      1.07562519999933
  H           3.16241858468885      1.56056256923051      1.03117633012432
  N           3.46746885982449      2.00892413167368     -1.49104713573566
  C           1.48270454138099      2.90867521792967      0.83547168726846
  C           1.24929437454156      3.07841782280680      2.31614517228360
  C           0.06291355685473      3.32087136253882      2.83785901410907
  O           1.64472490540345      0.69602215050139     -1.65021398209869
  N           2.31743640128892      4.07301780662043      0.44242542079392
  H           0.53714071763841      2.98785389499650      0.29048791732718
  H           2.13461347829903      2.98514108936764      2.93001133902209
  H          -0.82188958709153      3.40464890351380      2.22981600662504
  H          -0.06856181378167      3.42495794308573      3.90031860314632
  F           1.64726540163414      0.20535569932103      2.38586451455932
  F           0.03804755044979      0.65311816276768      1.01551374581871
  H           1.55898298161592     -0.52536060191577      0.53220638942874
  H           3.64738434277018      1.93428999021366     -2.47937024571738
  H           4.06284291672825      2.59940512157761     -0.93066104717595
  O           1.73725921887247      5.07372799069920      0.11711578431232
  O           3.52085012022056      3.95345267247124      0.51727624533306
