21
Coordinates from ORCA-job NEB E -33.173737545440
  C           0.85825000711436     -1.11745447328060     -0.40458351064901
  C          -0.39704573687492     -0.50188005840399     -0.65325631663065
  C           0.85594356653394     -2.41292825796518      0.18752217321519
  H           1.61958511207118     -1.01410339127577     -1.17467876500884
  C          -0.55570512924804      0.42718435106458     -1.83239542476841
  C           1.43923059145711     -0.06395197631007      1.06841368111449
  C           0.44472701206289     -0.29343284576274      2.02627387226487
  C          -0.86471944484474      0.13958533986483      1.70367702742676
  O          -1.30870901041728     -0.54589519796158      0.25764938633337
  Br          3.22631744897388     -0.64583924823268      1.46158983182999
  H           1.48253675188701      0.90027332258634      0.57349131832903
  H           0.56189443141211     -1.13949600799577      2.68773592456604
  H          -0.98045518052037      1.17917345838636      1.41335714517017
  H          -1.65393897288572     -0.19799967959412      2.36343918111580
  N           0.83506746890565     -3.46039759932357      0.64644334502672
  C          -1.07170335613648      1.80889448015502     -1.43145337879346
  H          -1.28023514848165     -0.02868280649564     -2.51434976234312
  H           0.39262206473762      0.51187383845806     -2.36581293210797
  H          -2.00600310920610      1.71515639201731     -0.88329101913785
  H          -1.25114125991353      2.40875409964471     -2.31969911320478
  H          -0.34651810662693      2.33116626042450     -0.81007266374835
