21
Coordinates from ORCA-job NEB_product E -33.220305184140
  C           3.09068391849742      1.30930010231160      0.73349131702971
  C           1.97403646734169      2.31886692494544      0.37756679703601
  C           2.77064515078359     -0.01344406845824      0.25478425407332
  H           3.99613911786970      1.64784364119086      0.20982394441503
  C           1.40724728318185      2.14947250929222     -1.00566793328652
  C           3.34148687469064      1.31527613121235      2.24738663688479
  C           2.24775505728033      0.66325033013420      3.01736645222428
  C           1.59410620141572      1.26810719920930      3.99184676914597
  O           1.62998845807438      3.16062681649018      1.15938201171804
  Br          5.05467221747179      0.37412705817303      2.61976968394400
  H           3.49933802859528      2.34292182648053      2.58163058559043
  H           2.02221673371165     -0.35647339981396      2.73281225616648
  H           1.81536556394852      2.28255097615783      4.27965724491645
  H           0.80337281544976      0.77539610564610      4.52968317877998
  N           2.50965651784498     -1.06444091032308     -0.10960704702083
  C           0.49829000185935      3.30680622856286     -1.39822027383645
  H           0.84706682774574      1.20876216142259     -1.01138288958586
  H           2.22631093401861      2.03393325223678     -1.72000360800078
  H          -0.30621595242066      3.41312307644710     -0.67537332172415
  H           0.06905647805236      3.13217728352657     -2.38072866846978
  H           1.05868130458732      4.23811675515576     -1.42011739000012
