20
Coordinates from ORCA-job NEB E -28.374611616380
  C          -0.79905828788885     -0.24162174189215      1.49980272440722
  C          -2.05440668040232      0.28448542278879      1.19048138578743
  I           0.57513769704409      1.07754293420218      2.45740905666784
  H          -0.75540482990470     -1.21667974309189      1.96879953709758
  H          -2.87199940549292     -0.43705343227355      1.05768839389851
  C          -0.13540688683853     -0.52302514886845     -0.28195743511891
  C          -0.27401780115674      0.75218618459825     -0.84726817762668
  C          -1.57448025119342      1.29539721007892     -0.97636223573422
  O          -2.13285194296930      1.41835942220661      0.58668871571683
  C           1.21966296534766     -1.20248072885403     -0.16988097191369
  H          -0.91092555787059     -1.23518704225894     -0.55880157201558
  H           0.54658533595685      1.44840034649236     -0.76287281870635
  H          -2.34178522127657      0.65214243088253     -1.39825397947508
  H          -1.64988856572232      2.32030261950353     -1.31539514850843
  C           2.41831160917372     -0.33769216981024     -0.54376100670933
  H           1.19973489478212     -2.07009464499634     -0.83591713850158
  H           1.36602904143644     -1.58849834968881      0.84166151837521
  H           2.33057890788641      0.01667146345337     -1.56798619339210
  H           3.32635326079086     -0.93074542242914     -0.46232902878752
  H           2.51783171829808      0.51759038995702      0.11825437453883
