19
Coordinates from ORCA-job NEB_reactant E -34.305350303390
  C           0.93879266493527     -0.15749442105376     -0.26527492223134
  C           0.87634860355909     -0.70345729993135      0.94629068726371
  O           1.36719706672523     -0.84763418909418     -1.35919132489794
  H           0.64355912031626      0.87583314600619     -0.39810924074507
  F           0.32425204112626      0.05396426373122      1.94508167193672
  C          -0.89593271063243     -4.42547732802612      0.77615238954449
  C          -0.75929762380360     -3.17563682581689      1.19779371346848
  C           0.37034696374443     -2.71885000430070      2.06204367484397
  O           1.30563692460635     -1.90448104999133      1.33200196025973
  O          -1.88113064318552     -4.89251713313543     -0.01719446092455
  H          -0.21468625021879     -5.21321301887162      1.06382248959172
  H          -1.45595530087452     -2.40973225665712      0.87987636873494
  H           0.96417336638483     -3.56363866366714      2.41184737153750
  H          -0.00358455752393     -2.15016240823874      2.92264795675590
  C           1.87136637392165     -0.04454079072163     -2.40137200360345
  H           2.06775367499911     -0.71572117947516     -3.23501720857922
  H           2.80214181700724      0.45154323770945     -2.10718785761508
  H           1.14299092442774      0.71487350959820     -2.70695697940072
  H          -2.46557245551467     -4.16915758806391     -0.27925428593979
