20
Coordinates from ORCA-job NEB E -40.109769621680
  C           0.18106841703228      0.00270481718487     -0.90452886565250
  C          -1.08653473178867      0.75244457315595     -0.86211553021814
  O          -0.01485773979081     -1.38651757750334     -1.04408353513361
  H           0.82397544081413      0.39202711575518     -1.70691197893830
  N          -1.33534226958850      1.81108894110669     -1.68335611454298
  C           0.88448379421880      0.20526087400593      0.49046402569410
  C          -0.11223705776122      0.02019974794700      1.54668487216207
  C          -1.54779235021337     -0.19429294121883      1.20928930536234
  O          -2.00410658668055      0.49712888606940      0.06162073334567
  C           2.09470868912689     -0.74308387614739      0.68179725124245
  H           1.33503583098874      1.21138042799879      0.44785961307902
  H           0.19429126636044     -0.52021124314455      2.43034743896445
  H          -2.19007351335905      0.17136305879072      2.01654820659768
  H          -1.76190575857256     -1.26676170533391      1.07843558149408
  H          -0.35081227678437     -1.59756612825967     -1.92126066727723
  H          -2.25073663572486      2.22546242355702     -1.60371668404046
  H          -0.90173778144709      1.83759395631518     -2.59106469845053
  Br          3.17413885260461     -0.09879874787572      2.19182860918596
  Br          1.58711787953291     -2.58039656210018      1.06447048360699
  Br          3.28131653103224     -0.73902604030315     -0.90230804648108
