20
Coordinates from ORCA-job NEB_product E -40.190509705360
  C           3.20181761180517      0.75053604914857      1.55641774951659
  C           1.91641161675096      1.58086008792152      1.78278354737286
  O           3.04698207999647     -0.01564401915974      0.39295975317966
  H           4.01585087029605      1.48572040873375      1.43559187342469
  N           1.12508493189347      1.65043318039352      0.70781739782680
  C           3.44035279310144     -0.06441082759967      2.85292817926275
  C           2.58812821789661     -1.30250480052170      2.85158502349829
  C           1.58387940864099     -1.48379962269209      3.68720477919302
  O           1.69918134526598      2.12538820541530      2.84086436548575
  C           4.89591715188144     -0.41239975393375      3.10363003028387
  H           3.12253747039874      0.59222459211820      3.67609807478190
  H           2.83118181210003     -2.04280536235757      2.10074940672995
  H           1.32342979869659     -0.74886655329597      4.43071537865064
  H           0.98020850164441     -2.37371832570014      3.65461058904459
  H           3.88004228109767     -0.44511038488656      0.16037647984811
  H           0.25228751813403      2.14711033288281      0.76767863243349
  H           1.34457553678164      1.10101791238391     -0.10600567738293
  Br          5.06223964902946     -1.43224147401825      4.76728187133606
  Br          5.67701622732294     -1.50364235920376      1.67885123865062
  Br          6.00517517726593      1.19375271437162      3.28476130686329
