20
Coordinates from ORCA-job NEB_reactant E -40.153926447120
  C           2.14630782596083     -0.17094962997372      0.52316089402284
  C           1.59476654708149      0.90914505843918      1.08422053497019
  O           2.31807092123310     -1.40183337937071      1.14779439019388
  H           2.47609956011020     -0.10203541166947     -0.50224562626759
  N           1.47239928115902      2.11277627334268      0.38237727856041
  C           3.87417228293768     -0.75664938908573      3.63095138058358
  C           3.09406842040837      0.29942751315073      3.47012021386785
  C           1.60433196676952      0.20442145941318      3.36123992721228
  O           1.10795671995454      1.06370319416967      2.36045769494239
  C           5.34906496615610     -0.75483724453580      3.65524753805482
  H           3.44505572194926     -1.74854775953736      3.70612980206985
  H           3.49396052142768      1.29937300675154      3.36346035056812
  H           1.13998750132984      0.56317551661805      4.28688082453329
  H           1.29771094456218     -0.83088147973328      3.17868949473143
  H           2.98393216911062     -1.89710870781118      0.66128517855619
  H           0.79268678793273      2.72014202703982      0.81856864037042
  H           1.30835689691345      2.00454186435383     -0.60701380129607
  Br          6.01237669079783     -1.74780507326842      5.22261038831222
  Br          5.99415170185287     -1.69902569845768      2.04044249481520
  Br          6.17004257235269      1.00106786016469      3.67002240119869
