19
Coordinates from ORCA-job NEB_product E -47.165604515540
  C           1.54365446878176     -1.97166364185483      0.59691899870905
  C           1.08028127321669     -0.69240100432103      1.26808013308902
  C           1.40534477408763     -1.84348955770917     -0.91729827664401
  H           2.62063365199118     -2.08108577256788      0.82285435815231
  Cl          1.42433027920864     -0.68287739804815      2.99409739141278
  C           0.87681485643684     -3.20829857151397      1.23776720793791
  C          -0.44072636416260     -3.64642096283673      0.67413034038578
  C          -1.59100046711269     -3.38973885865068      1.26927042470291
  O           0.56900133031521      0.23779885965580      0.74798084673762
  N           1.84823032678046     -4.36948619572326      1.22666981321083
  H           0.75269174192275     -2.98125273683207      2.30554748434053
  H          -0.40598161203666     -4.22522730565665     -0.23767110678273
  H          -1.65047405108704     -2.83182407187238      2.18955597878871
  H          -2.52276428878550     -3.71560928077337      0.84430870279490
  Br          2.59614741352387     -0.41956589490223     -1.54005693544161
  Br          1.96297284264082     -3.49347544973087     -1.80195541274892
  Br         -0.39204858857893     -1.41258717966861     -1.51530951840834
  O           1.36381638339357     -5.46447441742056      1.21452566915952
  O           3.02047602946400     -4.10072055957332      1.28968390060373
