19
Coordinates from ORCA-job NEB_reactant E -47.159427181390
  C           1.50952644843861      0.13937953343200     -0.13991303683618
  C           0.88952649171388     -0.56707715139285      0.81686733319558
  C           1.97679398019696     -0.53656619306716     -1.36385700794968
  H           1.67682401673216      1.19669053885188     -0.03146734620053
  Cl          0.33294310739293      0.19107113467177      2.26200976411070
  C          -0.11510584255390     -5.13240497107326      1.83853881705864
  C          -0.11000674841468     -4.02866989353966      1.10429702729914
  C           0.05551179771791     -2.65191711413293      1.64851940109914
  O           0.69688647589426     -1.87297964690170      0.65302401879558
  N          -0.31620261163939     -6.42406956986391      1.23597457793780
  H           0.02357362311316     -5.17635067861435      2.90823064626782
  H          -0.24369410112113     -4.10138975965494      0.03116978986629
  H           0.64633416277339     -2.65109637775594      2.57215426381316
  H          -0.93629939492904     -2.22938951913291      1.86749253168550
  Br          2.82619065731918      0.71121995342684     -2.57637656162496
  Br          3.27356831619124     -1.96728038247299     -0.95095313063445
  Br          0.48999300980714     -1.40407515145719     -2.32611070218400
  O          -0.52660718356709     -6.47497345401639      0.04701777135383
  O          -0.25965620506561     -7.37512129730630      1.98228184294661
