20
Coordinates from ORCA-job NEB E -29.230618200560
  C           1.51247154359283      0.02808628884709      1.34875509863594
  C           0.94435958091562      0.43099056107756      0.14530915146550
  C           0.73775874360896      0.43057711927529      2.60876692617810
  H           1.66948347386296     -1.05257125769866      1.36026751433562
  F           1.62744613800766      1.30327062306124     -0.65503716938442
  C          -0.74732466005513     -1.03439792783089     -3.51305111497973
  C          -0.07468278730838     -0.18107041309122     -2.76233971287206
  C          -0.68928518306620      0.59641846177979     -1.64275614488858
  O          -0.20347363411359      0.11276156777756     -0.36184771095701
  H          -0.27141422407639     -1.58615120521007     -4.30454720835107
  H          -1.80185165698626     -1.20592056437236     -3.37330895674832
  H           0.98552413047127     -0.02364090077501     -2.90628054697842
  H          -1.76935565417134      0.44796130535614     -1.60027002557626
  H          -0.45374705711673      1.66213629015539     -1.72931699005211
  C          -0.60669575557769     -0.27766617897494      2.79842594392438
  H           0.58039353139230      1.51104811706936      2.58844781675997
  H           1.38352948324124      0.20345002403900      3.45827291511167
  H          -1.27240568605908     -0.07342577481183      1.96205510165190
  H          -1.08832924887250      0.06234478258029      3.71410540749190
  H          -0.46240107768954     -1.35420091825373      2.86434970523301
