23
Coordinates from ORCA-job NEB E -59.494846860560
  C          -0.14017379714476      0.87347110985307     -0.54350313225966
  C           0.80768344121803      0.00246053739627     -1.16479093165976
  C           0.25416484827757      2.22588727432707     -0.01622938838811
  H          -0.98521090851162      1.01559305116197     -1.21514819840640
  C           2.27348106154749     -0.11165932711597     -0.72380155138566
  C          -1.15349746051810     -0.30008181188153      0.61941733518752
  C          -1.02448426224990     -1.58433612312118      0.02283558516296
  C          -1.13556714605483     -1.72549448775678     -1.35499134006828
  O           0.35715546156170     -0.93001629121584     -1.88558820031733
  C          -0.88420704490089     -0.32983105065106      2.11033113038763
  H          -2.08534731464027      0.23114972363279      0.43640079107099
  H          -0.39521168237575     -2.30634387051198      0.53013050990574
  H          -1.84731640984359     -1.11409997956392     -1.89468009550840
  H          -0.96931537965297     -2.69991173237698     -1.78854072375801
  Cl          1.02166026264770      3.14626122696115     -1.36885044546553
  Cl         -1.20913255951354      3.14791002146143      0.42998663936001
  Cl          1.39032440653444      2.20699263226628      1.33682409721695
  F           2.81425955878605     -1.22138500885284     -1.25962771490926
  F           2.99769850020750      0.93593795834559     -1.17910155931745
  H           2.40733377885494     -0.16234110117268      0.36829588179280
  Br         -1.26116080725821      1.29686326950049      3.08953627647334
  Br         -2.14088952024768     -1.66516463694188      2.87789279126223
  Br          0.90775297327668     -0.93186138374349      2.57320224362369
