23
Coordinates from ORCA-job NEB E -38.963660720720
  C          -0.16113362646210      0.67458245235208      0.20171506050192
  C           0.24652533318570     -0.51534154952335      0.80226620217712
  C           0.72118926635791      1.30713303848811     -0.84776426439568
  H          -0.62471455153977      1.40636340362558      0.85995228887832
  C          -0.12243168330013     -0.84254842240771      2.20691950220192
  C          -1.65121889667816     -0.02882857097471     -0.89787437773380
  C          -1.03433573249298     -1.05281184555151     -1.58244496981088
  C          -0.46502384983074     -2.14123893743494     -0.81712817947838
  O           0.65127187653785     -1.52768403847643      0.05427229559130
  H          -1.97746452982933      0.83925601610889     -1.45207279846053
  H          -2.28817051049060     -0.26846744005452     -0.05809290284926
  H          -0.63647657423808     -0.87234154238987     -2.57020288668192
  H           0.06277574281284     -2.89353278047692     -1.39481482425724
  H          -1.14894738485187     -2.60240261155821     -0.10311412732535
  C           1.82561833710521      2.10716927570852     -0.15769439957870
  H           0.13613534536305      1.97426770474042     -1.48132753598821
  H           1.16734881881076      0.53072074309748     -1.46977858513589
  H           1.40301215057927      2.87529924040703      0.48624597067664
  H           2.45461995539764      2.58820088610130     -0.90208092233726
  H           2.44662552192491      1.45338852001634      0.45014120806449
  Br          0.41435451664048      0.57347341881573      3.42918091389531
  Br         -2.13103346051264     -1.08445261142689      2.49477225755307
  Br          0.71147393551076     -2.50020434918641      2.74892507449302
