23
Coordinates from ORCA-job NEB_product E -39.000634738830
  C           0.81121081736985     -0.63570220888241     -0.95286192477388
  C           1.55041703264143     -1.78764981958837     -0.34024704440456
  C           1.77279412527677      0.16714492024374     -1.84231050011014
  H           0.39556758802832      0.02027178730403     -0.18094935015481
  C           1.33792843185232     -2.02552389441642      1.15850923470369
  C          -0.36541210925606     -1.21466571002041     -1.78548848259630
  C           0.05780902933228     -2.30252631008685     -2.72152619689628
  C          -0.29719212305998     -3.56580338252553     -2.58036569727410
  O           2.27259698588030     -2.53374150065958     -0.93693209894030
  H          -0.79315907174095     -0.38536220809799     -2.35390057465523
  H          -1.13524422828122     -1.59481590870490     -1.11167039210860
  H           0.69234466316432     -2.00248645710446     -3.54315500841044
  H           0.02347798790354     -4.32788491302560     -3.26856113119979
  H          -0.93070690400630     -3.89144572586862     -1.77020270667845
  C           2.83118238601153      0.90818873966455     -1.03579475991818
  H           1.18655052350232      0.88600077759674     -2.41760416134369
  H           2.26085124989254     -0.51616192551806     -2.53829067560663
  H           2.37292925978400      1.56508147348209     -0.29909558682733
  H           3.44403637425348      1.51390741344640     -1.69836098903600
  H           3.48718269910729      0.21163749093257     -0.51785574647765
  Br          2.04197562986217     -0.50260585220395      2.15005965142166
  Br         -0.54766103924131     -2.21659281811933      1.58172645486931
  Br          2.27522069172336     -3.63106396784762      1.70087768641770
