23
Coordinates from ORCA-job NEB_reactant E -38.981433053420
  C           1.71854255466502     -0.32743299769090     -0.02151556853695
  C           1.53727346549065     -1.64391638435830     -0.08751431925819
  C           1.73295537528700      0.57134058382251     -1.21104329300295
  H           1.89545181479640      0.14348607323907      0.93522600830067
  C           1.52027016019535     -2.51899333396649      1.13626290067417
  C          -0.71856037340483     -2.37148413463909     -4.05759158293742
  C           0.01450778109790     -2.92406806137869     -3.11112317109403
  C          -0.00024985803398     -2.48797067221634     -1.68126504780139
  O           1.35886962049068     -2.31916597570298     -1.26092349789546
  H          -0.69053137808663     -2.72556344114832     -5.07313419312352
  H          -1.38955848302748     -1.55295022804949     -3.85331478110764
  H           0.69099237409492     -3.74016175477152     -3.31891092401174
  H          -0.48382900863118     -3.26354152128299     -1.06739529034745
  H          -0.55086485316167     -1.54735929570845     -1.55832571818010
  C           2.99188935357223      1.43606491574095     -1.22205513603338
  H           0.85359801763241      1.22166922234595     -1.16671661115857
  H           1.67805233849272     -0.02448120137794     -2.12346959956816
  H           3.04914257316298      2.04261413497132     -0.32109100530369
  H           2.98261198484923      2.09684185301095     -2.08474586118218
  H           3.87984226317168      0.81086287338760     -1.27470428462365
  Br          2.81800937349389     -1.97907620969778      2.48039074151572
  Br         -0.27356748323507     -2.44797249360189      1.99332700147494
  Br          1.88085238708780     -4.35954195092716      0.65093323320095
