23
Coordinates from ORCA-job NEB E -39.582529114680
  C           0.13449000400884     -0.89463786266890      0.51369012349968
  C          -1.18470650895751     -1.02615680711117     -0.17971980288465
  O           0.08225071821163     -1.36792595970760      1.85083517030059
  H           0.88468561322071     -1.45056903208013     -0.05960624945455
  N          -1.34307307701640     -1.82091935304045     -1.28620645574604
  C           0.48028202524952      0.60812634280028      0.56996731731210
  C          -0.68802963460599      1.36435397195108      1.04751734973463
  C          -1.96567419694865      0.65488826066932      1.24669362269738
  O          -2.21631229648227     -0.25453010760748      0.17404009522103
  C           0.99422870042041      1.16055711920064     -0.78230063410159
  H           1.29739071389332      0.71175547323491      1.29891213679688
  H          -0.63974161382988      2.43440444247868      1.13638325129786
  H          -2.82536703134839      1.32685525887162      1.26778385140106
  H          -1.94190669397235      0.07382257540584      2.18693068519523
  H          -0.00505459476241     -2.32761149767293      1.83888828163486
  O          -0.36990533025774     -2.52187706192287     -1.61718079478585
  O          -2.42432272424769     -1.81171554921965     -1.87609798608707
  C           2.34620256816269      0.59049883077005     -1.18819899054980
  H           1.07180707258345      2.24545543448489     -0.69155974690917
  H           0.25547314991423      0.94163961114454     -1.55526428278196
  H           3.08344028232443      0.74743275862925     -0.40416136336763
  H           2.69253034266762      1.08884468118131     -2.09008183939385
  H           2.28131251177243     -0.47269152979123     -1.40126373902914
