23
Coordinates from ORCA-job NEB_reactant E -39.630550710180
  C           1.26448705627685      0.11220328465605      0.07977659972822
  C           1.37943492181038      0.68823220715462     -1.13108274412648
  O           1.88024313699365      0.53840245868961      1.20862817821662
  H           0.63054792700356     -0.76319584003214      0.13925249944164
  N           0.65630676699219      0.07738972839203     -2.22535005768473
  C           4.45279863460389      4.26986585577439     -1.10993416673999
  C           3.24154376601130      3.78834040230111     -1.32958439699651
  C           2.64815508413636      2.62965939306178     -0.59211372666780
  O           2.05651810721191      1.76641612565367     -1.55855565466746
  C           5.04959196392455      5.43107296701220     -1.83662182618504
  H           5.08877815658459      3.81431782532656     -0.36091289130156
  H           2.59623793149452      4.21874110818564     -2.08160155793516
  H           1.87086095276096      2.97997205740409      0.10169350610480
  H           3.41176771723843      2.09379934393959     -0.01926476994726
  H           1.62543488098971     -0.01224941060931      1.95684497502542
  O           0.71513360919150      0.62181715250002     -3.30079567306670
  O           0.03633995531502     -0.94432609250828     -1.99299946637210
  C           6.33145166327296      5.02031688547935     -2.56108832575421
  H           5.28514148063208      6.22018104073724     -1.11663039083113
  H           4.33081033956585      5.82809460915365     -2.55461531180163
  H           7.06454733928421      4.63758112110739     -1.85449417834576
  H           6.76399117145650      5.87252269283425     -3.07946480649174
  H           6.11747743724906      4.24274508378649     -3.29028581360145
