26
Coordinates from ORCA-job NEB E -35.744930240730
  C           0.15730786453484      0.74669681360227     -1.00204917516382
  C          -1.13603644493968      1.26208278980618     -0.81068561454989
  O           0.44736521042334     -0.41134759353113     -1.67635796974486
  H           0.93352736932584      1.47337353070207     -1.23295037999772
  N          -1.22693448824592      2.63661239281822     -0.51530109612730
  C           0.50821927523120      0.36739388771380      0.95534482328827
  C          -0.55950591789710     -0.45461328471133      1.29329539088431
  C          -1.86591054253824      0.09281244714237      1.22377206009781
  O          -2.10340260559539      0.51504288506914     -0.37998135035629
  C           1.94562849230445     -0.09428444576783      1.02304714157938
  H           0.40485969617763      1.41467067690560      1.23194038895536
  H          -0.45190726378276     -1.52565597462889      1.21653763313160
  H          -2.00423815834847      1.07200610204813      1.67220231533245
  H          -2.69904084536036     -0.57630578394577      1.39578536437721
  C          -0.60855771952426     -1.30800683186973     -1.93990485889505
  H          -0.17576099644477     -2.09790785456819     -2.55321013866361
  H          -1.41428899861063     -0.81117382975659     -2.48899915536728
  H          -1.02200454326102     -1.73409974986501     -1.02411685377820
  H          -2.18002107201244      2.94030514880981     -0.37905079415749
  H          -0.70307983579877      3.24809802290040     -1.12076948581142
  C           2.17601001053362     -1.57385923596424      0.74178515630365
  H           2.30993856250872      0.13887845952094      2.02994132653182
  H           2.54132422190249      0.49735233807933      0.32456205690602
  H           1.69561889547304     -2.19380411417505      1.49451962043852
  H           3.24262001641856     -1.78811677867505      0.75819048970559
  H           1.78826981752611     -1.83615001765947     -0.23754689491905
