26
Coordinates from ORCA-job NEB_product E -35.797964255620
  C           2.81620598277672     -0.19437704637005      1.31526296109193
  C           1.47014407101704      0.53686037913236      1.18630688516271
  O           2.79870651131423     -1.44559191635689      0.67801494985058
  H           3.60172779049962      0.44143192945937      0.86272537798775
  N           1.55439152788808      1.87221241163959      1.41056435534446
  C           3.11141171897870     -0.37375165096657      2.82223666817191
  C           2.06071896683446     -1.24669686594611      3.44259630214527
  C           1.44318979599390     -0.96317014040298      4.57297601561232
  O           0.42862882292813     -0.00489426082638      0.90642983123418
  C           4.53187213359315     -0.91084420280710      3.08662964275731
  H           3.05745381660528      0.62387265745843      3.27694481767579
  H           1.82752809521789     -2.14098362637822      2.88606116997112
  H           1.65820787819965     -0.06558024142523      5.13211695930537
  H           0.69658246120799     -1.61528507732949      4.99207814791421
  C           2.65975131455299     -1.37978652624028     -0.71954923221949
  H           3.46073235150894     -0.77467922356021     -1.16641764761616
  H           1.69125480751900     -0.96460310957533     -1.01123943272032
  H           2.73620624018057     -2.40430519346157     -1.07846639506767
  H           0.70312898079261      2.40984064872521      1.42123043955295
  H           2.40594301682404      2.31836333302075      1.69941458635734
  C           4.70766328287308     -2.40010540803331      2.81896323186793
  H           4.77084241428021     -0.70973231327655      4.13419985094462
  H           5.23616000869715     -0.34445691551685      2.47134193390104
  H           4.11771742923412     -2.98384451072095      3.52063751442120
  H           5.75402057796535     -2.67473978655002      2.93745319756876
  H           4.38921000251709     -2.64465334369159      1.81108786878488
