26
Coordinates from ORCA-job NEB_reactant E -35.769802890990
  C           1.11535598719269      0.18578435648186      0.14558038988524
  C           1.14500876134515      1.11252598393360      1.11121235154455
  O           0.96817062491076     -1.17953760563719      0.34146501223758
  H           1.20645717537473      0.50192390943484     -0.88739455444316
  N           1.27447450062749      2.47158885026528      0.80105849217528
  C           3.73620178949436     -0.96810316298363      3.87290797288283
  C           2.96892418618047     -0.46561442434086      2.92115193942685
  C           1.48627299432470     -0.27764449775188      3.03089040267250
  O           1.05079917242318      0.94723177428806      2.46142626904469
  C           5.20895128428997     -1.19527324750495      3.74627950395549
  H           3.29758741468813     -1.27796245991561      4.81321869756919
  H           3.39571946299136     -0.15046865891379      1.97786036791885
  H           1.17590338895909     -0.22233373388239      4.07741481181731
  H           0.96840776970458     -1.11513639061008      2.54594325269062
  C           1.82881751237923     -1.95853553569165     -0.45258988326084
  H           2.87798391207086     -1.81600391665911     -0.16833262744275
  H           1.71451234713706     -1.71256078776518     -1.51517682004424
  H           1.54745300411639     -2.99742192724605     -0.28823859204953
  H           0.97594896150583      3.04955539212227      1.57455571512291
  H           0.84383463416068      2.74391869003364     -0.06947822733940
  C           5.54760519643929     -2.68121693662190      3.86782495701254
  H           5.72562237712887     -0.64784286345426      4.53985311301853
  H           5.56158055974264     -0.81426499432858      2.78618795187276
  H           5.21707553337715     -3.06984075359321      4.82852047567386
  H           6.62084628535154     -2.83560002397661      3.78372481341468
  H           5.05278516408378     -3.24646703568260      3.08123421464365
