19
Coordinates from ORCA-job NEB E -37.845034499910
  C           0.33837142829840     -0.78748291388067      0.84760665285542
  C          -0.95891508611322     -0.45212270577246      0.35435767656985
  N           0.74258339561927     -0.26086628508377      2.05324392564695
  H           0.67402820833317     -1.80889285584896      0.69190502686051
  C          -1.63223638106543     -1.43377774730942     -0.59709744381119
  C           1.32512150997194      0.16762785927608     -0.56616095003784
  C           0.84809328188691      1.48379691158057     -0.46803864437492
  C          -0.45217476588613      1.76860705944893     -0.85116353973399
  O          -1.37526960257641      0.74095494523063      0.39666902350583
  Cl          2.97931632564880     -0.11734685985080     -0.08268558714950
  H           1.06538766503067     -0.43525783547402     -1.42618894227675
  H           1.34990444899891      2.15178569252257      0.21865701349980
  H          -0.87744689947288      1.26243064341994     -1.70438045061294
  H          -0.85420687425903      2.74855746153502     -0.65258088651499
  H           0.36417451328070      0.65848889302454      2.23983648134841
  H           1.73166948839388     -0.33461577750024      2.24483601263246
  F          -0.99068915660262     -1.50176182467444     -1.80380434434225
  F          -1.59971128223986     -2.69268067353784     -0.10182307099185
  H          -2.67800021724706     -1.15744398710567     -0.79318795307297
