19
Coordinates from ORCA-job NEB_product E -37.867122454010
  C           3.04455322540824      0.07345905513083     -0.94499498827085
  C           1.57300337435770     -0.31137485241683     -1.02521688472741
  N           3.37914923420774      0.73618611785803      0.28931449986899
  H           3.65088001532186     -0.83496261946300     -1.04308481728181
  C           1.15961508539313     -1.24161288406408     -2.19064661296627
  C           3.36590015252148      0.98009522883400     -2.16348087869765
  C           2.66682979749241      2.29636180597818     -2.10180184503132
  C           1.77011900386106      2.68456737169868     -2.98951392814260
  O           0.74320441321817      0.07843040793747     -0.25064641007780
  Cl          5.13412655903705      1.26777416783557     -2.17426224410919
  H           3.13942799958270      0.45468236835872     -3.09349286500250
  H           2.96039642773242      2.93352613814422     -1.28036790671199
  H           1.47880967365044      2.06004657056291     -3.81768784216658
  H           1.28481680048478      3.64202717788650     -2.91620608617022
  H           2.67838001536453      1.43397778715691      0.51652411252398
  H           3.42365621891050      0.07787640269909      1.05723023328307
  F           0.81545436667554     -0.49719596669924     -3.26813299157255
  F           2.18123333479883     -2.03515425885926     -2.58221599447926
  H           0.30064430198143     -1.87461001857869     -1.92101655026802
