18
Coordinates from ORCA-job NEB_reactant E -39.137030517410
  C           1.68526002857116      0.06887311838922      0.00633103655767
  C           1.10728507046895     -1.08921802040222      0.38112339191688
  C           2.03603695388961      0.33274594879939     -1.42047649749175
  H           1.91810937346229      0.84358607252088      0.71444669191830
  C           0.79978886365242     -1.26464545019294      1.76578803779248
  C           0.24222836350863     -5.44684937510730     -1.16539061134172
  C          -0.00167074068623     -4.15149542200410     -1.18846270900506
  C           0.19831171307031     -3.24160833199187     -0.01633164295106
  O           0.82211523606767     -2.05228559212706     -0.49603709525956
  H           0.06776525218479     -6.06848443668989     -2.02554461130807
  H           0.61442815387084     -5.94107105517914     -0.28300301703384
  H          -0.36769278507157     -3.65706165311444     -2.07632842420338
  H           0.82149218229436     -3.71726239481278      0.75100121638626
  H          -0.77432346335762     -2.98840546607894      0.43228823248237
  F           2.94242565293869     -0.53345338910856     -1.90746311963740
  F           0.97491140409754      0.26284225251075     -2.24347021015218
  F           2.55856316745978      1.55686149302100     -1.57702776603995
  N           0.54946557357838     -1.41166829843197      2.87295709737003
