23
Coordinates from ORCA-job NEB_reactant E -43.982630854310
  C           1.72068758387501     -0.75650455115653      0.21635666513108
  C           2.15733064538216     -0.40459745295591      1.43019232910213
  C           2.45998340947877     -0.56765759778915     -1.05202505008672
  H           0.74978479214712     -1.21469473827950      0.11260467397495
  Br          3.83617768000047      0.41141298453036      1.73026025829300
  C           0.05848646985197     -3.49824156823673      3.55881118881073
  C           0.39089834419280     -2.66466483992220      2.58670027837955
  C           0.27870745528150     -1.17407538787679      2.69790768517800
  O           1.54983720705982     -0.52622166602364      2.60343265310001
  C           0.15135079036849     -4.98533403633854      3.47146413526502
  H          -0.33976072540053     -3.11118025000592      4.48821915553282
  H           0.79580686082684     -3.04180981380585      1.65769864060026
  H          -0.08922216175906     -0.89181686115671      3.68669141129724
  H          -0.39686388987485     -0.76641524199900      1.93478342493639
  Cl          4.01752149931743     -1.45513148427019     -1.05631841331915
  Cl          1.48664097356120     -1.18270841529046     -2.40514866117692
  Cl          2.81309048195560      1.15941743477932     -1.37841199380471
  C          -1.21813446987159     -5.63360834259302      3.67416955809282
  H           0.83050771461630     -5.34056394784895      4.25129778680003
  H           0.56125160317930     -5.27834643477709      2.50382888067950
  H          -1.62967650440061     -5.36338847433674      4.64387067089981
  H          -1.13416728145131     -6.71610917874513      3.62475464512135
  H          -1.91023847833683     -5.30456013590163      2.90256007719281
