23
Coordinates from ORCA-job NEB_product E -43.987696767940
  C           1.63357136474537     -1.56870022036168      1.56399046210241
  C           2.87742819128581     -1.00431913694747      2.21457625527661
  C           1.95422563441859     -2.27032805473605      0.24381210467195
  H           1.07179099766093     -0.67089101159625      1.26346825348127
  Br          4.15193127107025     -2.31080944830113      2.88427203769470
  C           0.76411845757080     -2.25044496745204      2.67170000250461
  C          -0.67827617557113     -1.88016016051400      2.45484825738110
  C          -1.42888176603390     -1.31231009531056      3.37909686542024
  O           3.09722200993428      0.13925078938204      2.41511933392729
  C           0.91284812649260     -3.76631240658924      2.90653385385163
  H           1.08544684566334     -1.76365818080642      3.60260662786095
  H          -1.08404430593496     -2.11584408310297      1.48294030404627
  H          -1.04373504416398     -1.06712927486782      4.35568001530650
  H          -2.46308551978660     -1.07304417175669      3.20203267989789
  Cl          2.76866408017055     -3.83233898045117      0.33504586638519
  Cl          0.47385075829065     -2.46215285781327     -0.72586050226777
  Cl          3.04756586088405     -1.16222947397291     -0.68044530228051
  C           0.02633834119298     -4.65436088825681      2.04012745483697
  H           0.63865925372469     -3.94361033785261      3.94896885201554
  H           1.95358523425107     -4.06382952754726      2.79785102655381
  H          -1.02371497262466     -4.47031191666682      2.25248082815603
  H           0.24059755387564     -5.69611567666816      2.26550461283122
  H           0.19739380288362     -4.49644991781068      0.98135011034607
