15
Coordinates from ORCA-job NEB E -26.135922501450
  C           0.15105018371847     -1.43757039804757     -0.25464142405441
  C          -1.18323036726977     -1.08958408051909     -0.20305298573254
  H           0.61882186462841     -1.69379306031308      0.68690672009913
  H           0.52562693095875     -1.98766743635810     -1.10432388129359
  I          -2.25054402397515     -1.08953324961554     -2.10526723879521
  C           0.96992433297421      0.38914036049367     -0.43806846770795
  C           0.37061144884105      1.03080086580382      0.64736109601341
  C          -1.02662708665009      1.20150182454170      0.66852091599789
  O          -1.67628557378986     -0.37647125949917      0.71006969544902
  O           2.30124843303180      0.15141223317195     -0.48336207215726
  H           0.59533465225223      0.57241857167465     -1.43974876006867
  H           0.89648559484673      1.00694863001433      1.59430378412788
  H          -1.50394620674970      1.53472725963855     -0.24701842108259
  H          -1.46650854712855      1.62180035078943      1.56155206309549
  H           2.67803836431147      0.16586938822444      0.40676897610941
