15
Coordinates from ORCA-job NEB_product E -26.173348957190
  C           3.19912048133462      0.71669085814611     -1.11446787708790
  C           1.72086108822168      0.60682354715625     -1.16709192316969
  H           3.55824175670697      0.18426063406061     -0.22984559110562
  H           3.65015917359842      0.27614075202918     -2.00557443063460
  I           0.88287862629557      1.41790780814466     -3.01008246103059
  C           3.66765725736342      2.18454596444511     -1.01821714808626
  C           3.00580097867650      2.86141035864957      0.15180243229998
  C           2.13668468567438      3.84684325332737      0.03416737052694
  O           0.98290777461201      0.15678086389499     -0.36563645740969
  O           5.07116966038775      2.12839051348435     -0.87613582621971
  H           3.40395239327860      2.71222899801789     -1.94891607688568
  H           3.29984040926775      2.48007767417457      1.12030297676321
  H           1.84106865500230      4.23288320642119     -0.92832140671116
  H           1.67605874176545      4.30294967328129      0.89314119379083
  H           5.40789831781455      3.01986589476686     -0.73732477504004
