15
Coordinates from ORCA-job NEB_reactant E -26.159782864060
  C           1.90144660149366      0.04971178623899     -0.19972820199432
  C           1.43493957884660      0.79814777757769     -1.18281832271041
  H           2.38401316469293      0.47475991328640      0.66303184227663
  H           1.80445060008544     -1.01810207950154     -0.22265296516905
  I           0.48423854388708     -0.07066839084620     -2.86691247881401
  C           4.23939005726845      3.94373103262724     -1.04787042772809
  C           3.55683257685179      2.93875216844117     -0.51366604575187
  C           2.06695847556512      2.95371825300597     -0.38045198772685
  O           1.42608853965884      2.12555604594746     -1.35084455887109
  O           5.57302095942686      3.99628535560469     -1.21850231194837
  H           3.76294174822203      4.85322923499852     -1.38547962376395
  H           4.06794413518153      2.03807655697391     -0.19985444243478
  H           1.67914339442966      3.95373938025039     -0.58503604687097
  H           1.75446867926539      2.64394123286520      0.62464137027960
  H           5.98302294512462      3.17052173253010     -0.92885579877249
