19
Coordinates from ORCA-job NEB_reactant E -36.624881168510
  C           1.05675186042558     -0.06662146751366     -0.14768532219175
  C           1.49692051059545      0.04818319390003      1.10295991752954
  F           0.64200638874432     -1.23958022349219     -0.66264128603523
  H           0.97708802715060      0.74728961241450     -0.84727871901665
  C           1.94794206819106      1.36990747356780      1.64300973389003
  C           4.42615698250658     -0.42557446032946      4.00346701370746
  C           3.63774285863574     -0.86209554918380      3.02751076780347
  C           2.15673653942529     -1.02931796074713      3.13745480038052
  O           1.50005728648890     -1.06978756734779      1.89905835842071
  N           5.84374641942575     -0.31767083610413      3.82074447753122
  H           4.09584112204685     -0.13266404610978      4.98830868846247
  H           4.08043595719014     -1.14051710369771      2.07738713726625
  H           1.72800995413735     -0.26872665344975      3.80399183779215
  H           1.95241698291722     -2.01348462038005      3.57819549159312
  H           2.99418479425582      1.33260973389268      1.94548457985263
  H           1.35056679945431      1.65638007462014      2.50810713590552
  H           1.83552710416220      2.13127607712652      0.87847423259778
  O           6.30402124604828     -0.57245229921729      2.72936063581387
  O           6.48674709819857      0.03254662205106      4.78659051869687
