19
Coordinates from ORCA-job NEB E -38.886752005590
  C           0.57272949418445     -0.19923122919998     -1.53683670911701
  C           0.27915632660942      0.99247068423930     -0.99534388196920
  C          -0.16756311541083     -1.48276863677647     -1.47910939427546
  H           1.47718856742615     -0.21417612594584     -2.11927334529606
  O           1.08257335805942      2.03019823903300     -1.28386845707666
  C           0.64737579472189      0.22023685610940      1.99099310895622
  C          -0.70822557943977     -0.11366032164207      1.68648852356780
  C          -1.48690752578481      0.50919750332686      0.58558327832878
  O          -0.74460525795398      1.40796745323625     -0.21154550118687
  C           1.73168704028944     -0.41151494401404      1.45224931454828
  H           0.85770101512442      1.02788755927958      2.68384987210099
  H          -1.23621323292589     -0.86590419852193      2.25885964860013
  H          -2.29096664419475      1.13037800059182      1.01152931513959
  H          -1.98747767813931     -0.25804736220540     -0.01895510556837
  F          -0.28049914603577     -2.01956384257589     -0.22679434134524
  F          -1.46784963595801     -1.35782349890777     -1.90294438739906
  H           0.30415034278398     -2.24578236721416     -2.11131737661155
  H           0.75321915495597      2.81925555238598     -0.83104036863274
  N           2.66452672168799     -0.96911932119863      1.04747580723642
