19
Coordinates from ORCA-job NEB_product E -39.017102300660
  C           2.46332137882858      0.13506894502705      1.91136381858700
  C           1.41850272332031      1.10507879669561      1.37884587736479
  C           2.54940787225630     -1.05360110173966      0.95363609108796
  H           3.43525259123209      0.63772400334588      1.94821409916366
  O           1.72699762554800      2.36336573257954      1.67957095983143
  C           2.04406659034193     -0.27419969192437      3.34929299454085
  C           0.83000418188600     -1.16776192840670      3.36262677612382
  C          -0.36120188616965     -0.76311163027070      3.75733471623950
  O           0.42218206401169      0.78168329748833      0.79662046128678
  C           3.14296780111582     -0.93618253649358      4.02445808206673
  H           1.83206842127929      0.64826224444586      3.90636126477837
  H           0.99774216730818     -2.18387817033543      3.03514392510724
  H          -0.54164000393704      0.24362388180064      4.09821806724246
  H          -1.21015293287368     -1.42350204387465      3.75224475058445
  F           3.18648962505783     -0.66844485783964     -0.17783362264530
  F           3.27563769008566     -2.06724413560525      1.46914533715191
  H           1.55882366977879     -1.43902185906934      0.66862679855870
  H           1.05389043100885      2.97868628512530      1.34510254919005
  N           3.99293998992103     -1.44934523094887      4.58742705373961
