23
Coordinates from ORCA-job NEB E -32.585771897730
  C           0.74199543838671     -0.77934761411882      0.04271948288843
  C          -0.63313676754601     -0.56758505026807      0.19916115197157
  O           1.50152605892280     -1.20836661348096      1.09872691069001
  H           1.13270266243328     -1.15270026360014     -0.89706318483679
  C          -1.51852131153737     -0.48730314568129     -1.02474378627129
  C           1.28095411867034      1.18973629276077     -0.02364796580707
  C           0.79812117532245      1.59152161828807      1.23274125373526
  C          -0.56586140899330      1.62768827501646      1.48345263546059
  O          -1.04102054013775     -0.14055823799333      1.33658749738326
  N           2.65021301905019      1.16325801704966     -0.24875445093281
  H           0.70801577324516      1.46455513146111     -0.90236678400017
  H           1.47733169438241      1.49853175212214      2.07000909474733
  H          -1.23423999032021      1.96218206166875      0.70317468383046
  H          -0.90934956522590      1.82830836787659      2.48549266137600
  H           0.97669155781474     -1.03821229268925      1.89741512341217
  C          -1.93932054135962     -1.88584786953474     -1.47681352566471
  H          -0.98902143973373      0.01257993340489     -1.84024440099329
  H          -2.40634306097676      0.09477046775530     -0.77226264583821
  H          -1.06649548860682     -2.48303594998587     -1.73062504354672
  H          -2.58480009745900     -1.82411915505150     -2.35005326436136
  H          -2.48076152703801     -2.39065269667817     -0.68059828042620
  H           3.17429819119419      0.77499806879524      0.52468821460855
  H           2.92702204951221      0.74959890288316     -1.12699537742500
