23
Coordinates from ORCA-job NEB_reactant E -32.609211535460
  C           2.26689734883504      0.85300339206363     -0.85440853306271
  C           1.35080215715960      1.66850506289386     -1.37505236393875
  O           2.89011993778897      0.99326684095467      0.37227534670166
  H           2.53925002692798     -0.03174114929112     -1.41641996156120
  C           0.67296350671155      1.31854106438689     -2.67590045884237
  C           3.39131380101098      4.09331031070396     -1.04977657046556
  C           2.80155254351739      3.90935239456886      0.12561285806548
  C           1.40901223663911      3.37621268495114      0.30252277822338
  O           0.84105484595713      2.83028392744005     -0.86924052243240
  N           4.71689938195530      4.47070463275733     -1.22466976563774
  H           2.87188304319193      3.87400452021808     -1.97209387306486
  H           3.32617164462914      4.12276654032326      1.04602628367491
  H           0.72588541290544      4.19078337335652      0.57843029798933
  H           1.40437312339187      2.63520606995657      1.11070907437488
  H           3.78661633661107      0.64978186973657      0.31019940049926
  C          -0.66250588909448      0.61769463234400     -2.42682170675627
  H           1.32301187032494      0.67661525108720     -3.27082939555347
  H           0.49333483694173      2.24393943401613     -3.22498758369870
  H          -0.50494894855678     -0.31398923910516     -1.88881395748509
  H          -1.15838903185665      0.39795446000064     -3.36954936206473
  H          -1.31037598373398      1.25551798654688     -1.83174742206276
  H           5.14344832714103      4.86046201459363     -0.39565500205464
  H           4.89482947160166      5.02472392549643     -2.04870956084766
