20
Coordinates from ORCA-job NEB E -32.868793113680
  C          -0.76103494156110     -0.31334515566367     -0.15331448619152
  C           0.05903614980030     -1.29888016114470      0.37925728282724
  Br         -0.93768370869050     -0.50867285951198     -2.46471792929531
  H          -1.82232586279694     -0.44777606836136      0.00906885064046
  C          -0.49193097110806     -2.52303189941411      1.04434676566170
  C          -0.21832042668097      1.13372243547256      0.08650317093221
  C           1.17392912451378      1.09155206760727     -0.38749286197467
  C           2.03777092394720     -0.02135543779897      0.00714908075085
  O           1.40039997935151     -1.22566401436651      0.41239894188383
  C          -1.05718614845031      2.21762678040520     -0.57421065318937
  H          -0.27677500099420      1.27216574341960      1.17551079015402
  H           1.42788151340804      1.62671958474072     -1.28696820770337
  H           2.66155582861556      0.24132255995935      0.87479810464407
  H           2.72055716732726     -0.28966620744866     -0.80684811910804
  F          -1.40806998880215     -2.18184840466205      2.01775984916596
  H           0.31258065779399     -3.08034483977815      1.53150262258018
  H          -1.02673485935625     -3.16225257657952      0.33218976094386
  H          -2.09677810087007      2.12624509815012     -0.26985561878716
  H          -1.00514834434146      2.14782058385453     -1.65627403308687
  H          -0.69172299110566      3.19566277112033     -0.27080331084809
