20
Coordinates from ORCA-job NEB_reactant E -32.914842488790
  C           0.33788888030136      0.94661000573430     -0.66085974109861
  C           1.61694530612955      1.26674913395580     -0.84830367316407
  Br         -0.68314362431220      1.79401137396295      0.67614468980012
  H          -0.17999050546045      0.19703481908125     -1.22845162202038
  C           2.44006154762650      0.60163309175509     -1.92403443957643
  C           2.16685897621219      4.16409984979511     -2.09061206399354
  C           3.30470946350187      3.69418375094649     -1.60648159110994
  C           3.41880806723819      2.78827272846596     -0.41089645800825
  O           2.20632649101213      2.17236818451367     -0.02735340170520
  C           2.05872263806898      5.06667916917981     -3.27018690326210
  H           1.22864730463927      3.89620005755420     -1.62270184027798
  H           4.25329883384666      3.96511932088167     -2.05026346507988
  H           3.70371995239422      3.37593734680388      0.46955786722661
  H           4.20400881045001      2.03812483482460     -0.57968572075222
  F           1.68503318627448     -0.28155975511533     -2.64265221694950
  H           3.26635775529270      0.02814894914244     -1.48381984176904
  H           2.83225336314852      1.34068383075284     -2.63397162385019
  H           1.44433326463158      4.60384928839709     -4.04203745836336
  H           3.03814592307553      5.29305271405452     -3.68435243198564
  H           1.57281436592891      5.99740130531367     -2.98043806406039
