20
Coordinates from ORCA-job NEB_product E -32.921013165480
  C           2.15978250902678      1.94801492452202     -1.68187478204480
  C           0.85638441153517      1.62529729040373     -2.39880092289183
  Br          1.98954500760493      1.00633652255651      0.04379897359434
  H           3.01775541192916      1.48320181003164     -2.17246927688437
  C           0.86586281003554      0.25979819129263     -3.06884464792911
  C           2.37556671306092      3.44481736857895     -1.46556813257370
  C           3.56040652965885      3.68129241902493     -0.57508284963409
  C           3.49585969086741      4.27738705579771      0.59953752198387
  O          -0.08435754347380      2.36494073624571     -2.40918744227752
  C           2.59420791441030      4.11651902534232     -2.82473022810522
  H           1.47497320260779      3.85910067889856     -1.00111635336929
  H           4.50592184617469      3.32286618574819     -0.96233049206239
  H           2.56343090794066      4.63701950819629      1.00260090122914
  H           4.36954257715860      4.42713052146152      1.20963451415811
  F          -0.31679600448757      0.00896726911053     -3.69557673561286
  H           1.02301719567485     -0.53242978979375     -2.32693922577775
  H           1.65573570635695      0.21862779355040     -3.82947456462160
  H           1.72159280286065      3.99400375013108     -3.46130804251302
  H           3.46216108309356      3.69390752577703     -3.32851712251530
  H           2.76600722796454      5.17980121312402     -2.67865109215262
