18
Coordinates from ORCA-job NEB E -38.668880226230
  C           0.80234270506126     -0.68869245584819     -0.54243832130250
  C          -0.70841087516741     -0.65388179766397     -0.71839222856162
  O           1.28474943065701     -1.79266704563814      0.15053296322330
  H           1.22198891103449     -0.63419915669103     -1.56239638095463
  C          -1.54337638546045     -1.56544206354268      0.21596057450402
  C           1.27759225973828      0.60745248272217      0.22818442857693
  C           0.14370937689731      1.51332661860398      0.60748587784826
  C          -0.11145700722737      2.65968299863596      0.00766830512247
  O          -1.26168892022793      0.00048400822237     -1.55883510579120
  F           1.92989949141196      0.21541759148596      1.36394693077797
  H           2.01835082720751      1.13384451754708     -0.38556916997712
  H          -0.44253986412568      1.16395775782199      1.44629284291832
  H           0.48194649085110      3.01405015503991     -0.81864311573103
  H          -0.93350725568298      3.28326379146240      0.31124807642395
  H           0.97491264864705     -2.61533920176382     -0.24493716749509
  F          -1.30332566883967     -2.86475991119791     -0.10153160021745
  F          -1.21130413879252     -1.40316483820715      1.50766724182466
  H          -2.61988202598197     -1.37333345098895      0.09375584881079
