18
Coordinates from ORCA-job NEB_product E -38.679645491890
  C           2.24061126333756      1.42283557431360     -1.83025217332785
  C           0.89151505616764      1.10097045514717     -2.47222448007661
  O           2.21567316281810      0.84867272533777     -0.55004724235182
  H           3.01703287734667      0.95468511981286     -2.46169987226074
  C           0.55107130452906     -0.39601451144430     -2.34978380101851
  C           2.50285116121510      2.95011612961373     -1.81811117760298
  C           3.67536107030762      3.28499384175110     -0.94655529228631
  C           3.58466462316648      3.49845155171998      0.35381472056141
  O           0.15084090741620      1.89435378049949     -2.96419648796157
  F           2.77487226676402      3.32416486622304     -3.11368501660713
  H           1.59333824678815      3.48303405968817     -1.51593241457249
  H           4.62352421827707      3.31237945305062     -1.46493236988806
  H           2.63732085114144      3.48223766337530      0.86758475621688
  H           4.45360268815260      3.71016370714345      0.95220226324300
  H           3.03888267607640      1.06284449247994     -0.09005573150015
  F          -0.41948991969652     -0.75131063373356     -3.21087049189494
  F           1.62825347492054     -1.16601225897848     -2.62556739144324
  H           0.21957407127188     -0.62406601599989     -1.32278779722888
