23
Coordinates from ORCA-job NEB_reactant E -44.442844964400
  C           2.50115782017037      0.55644323953301     -0.89728451284887
  C           1.52593464858143      1.40973676334447     -1.21976795517859
  Cl          3.58431083015695      0.65733931006637      0.43080714754838
  H           2.67893693796074     -0.31430406271521     -1.50479971388816
  C           0.69979006679103      1.15740263295620     -2.46560701034503
  C           3.62047977028736      3.85457240333912     -1.14434835333946
  C           3.18703754230880      3.63330197520333      0.08484014034601
  C           1.80438623150705      3.15329972588457      0.42349753737891
  O           1.10304126255404      2.55877155320419     -0.66098369155021
  C           4.98768977867301      4.31716251004713     -1.53707315139682
  H           2.95424072552788      3.68837651974385     -1.98169960094701
  H           3.81396584674462      3.79473844995542      0.94796505575049
  H           1.16940089397542      4.00431731667141      0.69667922830811
  H           1.83575390780253      2.46616535345473      1.27584115285736
  Cl          1.37051339104844      2.14674840356314     -3.79393663566904
  Cl          0.69467525530089     -0.52810455881329     -2.98744768385256
  Cl         -0.98039622096439      1.65313418250854     -2.19368068460396
  C           5.95590790617109      4.52683200501037     -0.38106927293532
  H           4.88011582120525      5.25063485011033     -2.09862969445995
  H           5.40435106281899      3.58066036839629     -2.23174752502825
  H           5.58504723013095      5.29012299607236      0.29872191301085
  H           6.92280730946330      4.84835065569430     -0.76098157942492
  H           6.09665198178425      3.60199740676935      0.17320489026803
