21
Coordinates from ORCA-job NEB E -39.858151509690
  C          -0.15579274863772      0.79221945623812     -0.55431409996167
  C           0.50823458717036     -0.37111935501936     -1.02515070541891
  C           0.52626875079295      2.04772041289996     -0.17128757444950
  H          -1.06887592187411      0.99047012614613     -1.10852356158672
  C           1.97383840562154     -0.62551861360735     -0.81291091010119
  C          -1.20884082649529      0.12828742227864      1.06661535379872
  C          -1.18320523639748     -1.27043783590632      0.91764359303799
  C          -1.58388947434495     -1.83555975123840     -0.27509328889946
  O          -0.21565060894361     -1.31845449820822     -1.44206557509521
  O          -0.67868721425029      0.71994970966456      2.15520594954467
  H          -2.09682880567901      0.66595081794568      0.75297566225113
  H          -0.46971300227344     -1.81268268679800      1.52945752654258
  H          -2.37181240154827     -1.36714436922955     -0.84479871840761
  H          -1.48799497580607     -2.89902579913931     -0.41884014388011
  Br         -0.77201687324353      3.38947715136615      0.42039871504372
  Br          1.86016252992847      1.89829957297476      1.23412281122014
  Br          1.47060004301663      2.84610194152457     -1.75696954197222
  H           2.24935119729878     -1.52161989730519     -1.36349535935420
  H           2.18457363698704     -0.79347584385399      0.24368965995752
  H           2.58245366738841      0.20642542954947     -1.15916703802054
  H          -0.06217472871042      0.13013660971763      2.61250724575085
