21
Coordinates from ORCA-job NEB_product E -39.901241928610
  C           1.44326232092020     -1.75065208056926      0.59841969758709
  C           2.83140460016155     -1.69720700487219      1.27282499276027
  C           1.07148954337833     -0.36838857966297      0.11632292940230
  H           1.46945401876327     -2.43335752747553     -0.25727653728987
  C           3.80579989526083     -2.70670829943848      0.76346000163541
  C           0.49488146652195     -2.34650852749839      1.66621519728646
  C          -0.94040412062452     -2.40543393127243      1.22844827287573
  C          -1.91672273240515     -1.76938421171337      1.84941937827835
  O           3.04815587518558     -0.90998935381259      2.15286039236621
  O           1.00598858622744     -3.64726998011998      1.90217689803425
  H           0.58129903114126     -1.73877271959189      2.58163286538577
  H          -1.13406131588354     -3.05586419082939      0.38605564783172
  H          -1.72991261834672     -1.12618204547852      2.69436012792914
  H          -2.93840035195942     -1.84891838333369      1.52203924278376
  Br         -0.46060963725144     -0.39449376166459     -1.09795660363170
  Br          0.68159457930672      0.87047993474408      1.54497810148693
  Br          2.56824095884078      0.35971894048245     -0.92797569062899
  H           4.74213766393210     -2.63244128037294      1.30943476121476
  H           3.98623008945321     -2.54938388957618     -0.29882717840401
  H           3.37118087975686     -3.69652280604462      0.89532173699890
  H           0.43359126762070     -4.09432030189951      2.53466576609750
