21
Coordinates from ORCA-job NEB_reactant E -39.902849840790
  C           1.33217104952551     -0.56507151550270     -0.08345925747326
  C           1.94889001536841     -1.63398791819727      0.45822968405437
  C           1.96532968794002      0.45249229034198     -0.92693958833492
  H           0.28045886754086     -0.40430761696767      0.09600427152593
  C           3.39531823277588     -1.97375999846189      0.29160729009687
  C          -0.83086374767589     -3.45087919033783      3.64369783082935
  C          -0.44033358289086     -3.57991749370516      2.38246902538634
  C          -0.05629789039233     -2.42232647892935      1.52079632581488
  O           1.33213016692820     -2.54298504460726      1.22504410615086
  O          -1.18542696331567     -4.45143645947906      4.46961208747050
  H          -0.92284720817057     -2.48958434675729      4.12955667351391
  H          -0.34758147437690     -4.55598920308426      1.92710020246169
  H          -0.24653943465626     -1.47769313138181      2.04438500234387
  H          -0.62808227824950     -2.43739369807332      0.58215986261288
  Br          0.66202970089113      1.79481717526791     -1.47993395083726
  Br          3.43231676371592      1.44591767650725     -0.01374433341145
  Br          2.75497691699956     -0.27782170611240     -2.60252939048371
  H           3.60456470653928     -2.87566023446638      0.86016452889853
  H           4.03135750750017     -1.16982105814919      0.65686704334909
  H           3.63684721567670     -2.15147786878886     -0.75476899386579
  H          -1.08751825167365     -5.30421417911544      4.02568157989733
