28
Coordinates from ORCA-job P E -34.164713686600
  C          -1.49969471634548      0.45761410526852     -2.28418692973057
  C          -0.39525961119888     -1.72205553244853     -1.08301542380111
  C          -1.78043245277144     -1.82952417045071     -1.63528114274012
  C          -2.31511337206426     -0.78935374476074     -2.25482512302542
  C          -0.98653947576910      0.75500515004210     -0.87720763009587
  C          -0.17385228281520     -0.41621478006291     -0.28450342098706
  H          -2.30271702105089     -2.76909297567014     -1.54607530823330
  H          -3.29933301180533     -0.79707055199761     -2.69348887728568
  Br         -2.54665932701639      1.99313543865013     -2.93833489782836
  H          -0.17769287226754     -2.57991109557377     -0.44862953101366
  H          -0.66689234819613      0.36860910501437     -2.98809591796731
  H           0.30102654908588     -1.74669139014716     -1.92670962219698
  H          -1.85625895783113      0.94545292949628     -0.24392163889287
  H          -0.56629878826610     -0.59902376314005      0.72180482757775
  H          -0.39684380687462      1.67046410495471     -0.89775656196255
  C           1.33251170246840     -0.08403969172374     -0.10291012036785
  C           1.48088434266851      1.01749589494652      0.95453279051182
  C           2.07885983476006     -1.32011658701806      0.41536430381441
  C           1.99447886630057      0.37737168123552     -1.40402792425992
  H           1.05940691733737      0.69292135792380      1.90343479498151
  H           0.98214970648907      1.93640188100456      0.65923732885569
  H           2.53292424924890      1.24540188819861      1.11021746665273
  H           1.58072385785181     -1.73174947616537      1.29048640937370
  H           3.09181922049700     -1.04598233803389      0.70161390914907
  H           2.14619844624315     -2.09439818930698     -0.34364312148392
  H           1.55728693159885      1.30144941114153     -1.77278445877337
  H           1.91146527844842     -0.37811974367918     -2.18192473504566
  H           3.05292214127449      0.55824108230220     -1.23034944522510
