28
Coordinates from ORCA-job R E -34.074539563500
  C          -1.59011157378219     -0.07572913289171     -2.87177144672383
  C          -0.52686652034105     -2.80813034553344     -2.19349829443432
  C          -1.74929962335526     -2.35337194116032     -1.93508456340179
  C          -2.29149375013852     -1.06774221246174     -2.33131013581064
  C          -0.84839135066823      1.48420591798884      0.05247325491761
  C          -0.13679453662023      0.37719991432611      0.15419656658233
  H          -2.43743823444847     -2.97917912239114     -1.38180258857226
  H          -3.34766560252546     -0.92475420825750     -2.14601901553040
  Br         -2.36667714096640      1.57608250172351     -3.33885643695432
  H          -0.20826314334194     -3.77936738525685     -1.85670414887466
  H          -0.53435962034555     -0.11242256870852     -3.07781777122716
  H           0.19441774708582     -2.24042695207166     -2.75567799678254
  H          -1.92468620336892      1.46425489056887      0.01945763552989
  H          -0.64588518221792     -0.57744349625065      0.19549415504393
  H          -0.39845482287897      2.46119219386242     -0.00341511863017
  C           1.37225146226815      0.30332803357993      0.19936054451640
  C           1.93211914693461      1.30782596732462      1.21260316854414
  C           1.79377153797576     -1.11094659535582      0.60640321152515
  C           1.93793480959069      0.61814744391542     -1.19203708710135
  H           1.49087365489107      1.14217178248237      2.19292958809425
  H           1.71764364346586      2.32812339637819      0.90772921633589
  H           3.01122501595843      1.19606457820644      1.29496855487010
  H           1.41303964614463     -1.35038017966086      1.59714443445444
  H           2.87828024643320     -1.19577084355245      0.62655684662166
  H           1.40440062406762     -1.84351724559165     -0.09855803375047
  H           1.58425691894553      1.58582375348658     -1.53940478826330
  H           1.63083533729032     -0.14229555437593     -1.90713715828867
  H           3.02545751394741      0.63622740967694     -1.16204259268990
