28
Coordinates from ORCA-job TS E -34.057566827270
  C          -1.80524876548662      0.47690155096248     -1.92282598724322
  C          -0.70557677072737     -1.80032063487199     -0.62960309911745
  C          -2.02744503929467     -1.70157330544676     -0.91987653108142
  C          -2.57503130176667     -0.59922687757977     -1.60512579505712
  C          -1.17253944304129      1.04959902378900      0.16173604338934
  C          -0.36267142612526      0.09207911478022      0.68918911495330
  H          -2.72463446167606     -2.39542951695314     -0.47103743324688
  H          -3.65092290193039     -0.51659010260650     -1.66602567516366
  Br         -2.60447861838540      2.02987411927140     -2.67398897984355
  H          -0.35656523397310     -2.61129103668624     -0.01310864259849
  H          -0.75706744753748      0.42105617814120     -2.15275829806810
  H           0.03574773080503     -1.31821511429314     -1.23596640444824
  H          -2.20557811448152      1.10613550413373      0.45897500690769
  H          -0.77291256853256     -0.57624195783141      1.43195773033087
  H          -0.76269020895239      1.94508573233246     -0.27230407045504
  C           1.14703815791713      0.24907384192821      0.75320441409880
  C           1.41003644883302      1.28101343347247      1.86678875379812
  C           1.83703354705295     -1.05838932455548      1.15323837970625
  C           1.76745193199225      0.76873755917357     -0.54630757520819
  H           0.98850226421815      0.93907975915287      2.80937867375786
  H           0.95841495023932      2.23821318347351      1.61902071243540
  H           2.47973958413402      1.42692320990118      2.00107299333678
  H           1.35978048068088     -1.49206356554242      2.02927828553617
  H           2.88039701469395     -0.86739544473505      1.39592811102274
  H           1.81034377571186     -1.78582561525429      0.34737004265928
  H           1.32930000461921      1.71722409202343     -0.84466739160007
  H           1.64490721214860      0.05664577726046     -1.35967931311200
  H           2.83466919886441      0.92492041656002     -0.40386306568917
