18
Coordinates from ORCA-job NEB E -36.687200240400
  C           0.31711618548267      0.85068206041167     -0.78536853469522
  C          -0.95961695459259      0.75678888522151     -0.11116006844273
  N           0.37240320044909      0.41594221257455     -2.09442562535388
  H           0.84553642890320      1.79138884241803     -0.63331605688001
  N          -1.14007186005021      1.68518661947618      1.00860550358360
  C           1.22773540936064     -0.29978765611261      0.32363378889341
  C           0.48945899814139     -1.51338797916120      0.31798394802031
  C          -0.74960563923687     -1.57171206827080      0.93057108802937
  O          -1.62382109319539     -0.30030793192515     -0.09625531869051
  Cl          2.82461479220175     -0.37256186826521     -0.40643627838018
  H           1.27413450612618      0.26512478921591      1.24997389921357
  H           0.73619637115758     -2.24113148116225     -0.44277987513406
  H          -0.93787873178266     -1.03768917657743      1.85128433380895
  H          -1.36341432182335     -2.44578323382862      0.78356914039012
  H           1.30277684441984      0.34008856238854     -2.47960753144483
  H          -0.20586634219946     -0.39028222474230     -2.28998505100080
  O          -1.92534884759826      1.35671024753847      1.87112769534570
  O          -0.48434894576353      2.71073140080068      1.00258494273718
