18
Coordinates from ORCA-job NEB_product E -36.702969276220
  C           2.81354843122078     -0.30247136454779      0.81417879459397
  C           1.41242141363004     -0.02076830336285      1.26311617533158
  N           2.81799533564300     -0.59729156521363     -0.58863050630316
  H           3.44346628763927      0.57790112909053      0.99291027587840
  N           1.33265688419172      0.74981418070146      2.59743789018362
  C           3.34639828002352     -1.44497082917137      1.75572225076565
  C           2.44004418831170     -2.62694858527675      1.79265046710791
  C           1.87599926840888     -3.07141601651924      2.90111700308398
  O           0.38753105287825     -0.34698638675991      0.76725639223160
  Cl          4.95454944836681     -1.95395314918584      1.13125847603957
  H           3.52013659664109     -1.03809985045874      2.75430093155209
  H           2.26891152291522     -3.11882734174805      0.84529521829861
  H           2.04649266168064     -2.60004632192348      3.85529978675690
  H           1.21961416398784     -3.92329644047215      2.89726524189720
  H           3.71720510615659     -0.96776305033927     -0.87371974953997
  H           2.08601129934459     -1.25204037600148     -0.83818812782760
  O           0.22639511712425      1.00647363549769      2.98349658538426
  O           2.37762294183582      1.01709063569087      3.14423289456539
