25
Coordinates from ORCA-job NEB E -36.372870317370
  C           0.83729626519030      0.42236948232763      0.95901862007721
  C          -0.46384958076228     -0.05677135537829      1.12158516730736
  O           1.13182712611418      1.69401789272768      1.36479544822782
  H           1.69201586325118     -0.23703908812004      1.01555500056028
  C          -0.74432844624042     -1.52553366255998      0.91173562885399
  C           0.68537473779011      0.75311543020300     -1.12200312847826
  C          -0.68420862600618      0.79005055176121     -1.39932053863110
  C          -1.52367718546481      1.57809910726041     -0.62581552350231
  O          -1.41278034291802      0.80222504419137      1.06191664122130
  O           1.41711441759644     -0.21651193329030     -1.73344772272953
  H           1.20870966526913      1.68730811555378     -0.93444697669933
  H          -1.09477624974949     -0.08049972436995     -1.89270454388801
  H          -2.58874110797617      1.51703444642615     -0.77808257210310
  H          -1.17271122487063      2.54240796752432     -0.28875251520193
  H           0.27950391750763      2.12283155551285      1.54781417932552
  C          -2.05329401767661     -1.94257384159914      1.57201747462031
  H           0.08885790639468     -2.11609444103335      1.29474148040729
  H          -0.81102419689225     -1.69667899461711     -0.16911019118862
  H          -1.97705518580719     -1.85315764940598      2.65322621978824
  H          -2.29793963043634     -2.97207249807665      1.32269705258332
  H          -2.85785970137441     -1.29513968584965      1.23292306938793
  C           2.81162195788610     -0.00939674615099     -1.76540886709659
  H           3.22015662959749      0.12767020882593     -0.75985854477611
  H           3.06527491373682      0.86509358438833     -2.37363822356220
  H           3.24449209584072     -0.90075376625123     -2.21543663450348
