25
Coordinates from ORCA-job NEB_product E -36.416926432280
  C           3.14321246765860     -0.13501525449872     -1.59050599230681
  C           1.80523217738514     -0.84854749984801     -1.41008226929156
  O           3.10880363532288      1.10549329789951     -0.95226905628407
  H           3.96071830637185     -0.73231416457688     -1.17091367570677
  C           1.79235528774637     -2.31929990063433     -1.70020381637019
  C           3.43795445977181      0.05079629099557     -3.11275452984359
  C           2.21550068542688      0.57008908959593     -3.81641143480610
  C           1.96326576322397      1.85278332482426     -3.99427741618598
  O           0.84656010804074     -0.20551895463925     -1.05171471390419
  O           3.87784485005610     -1.19144149493508     -3.62434097200364
  H           4.24962667417461      0.79323541298710     -3.17519613576693
  H           1.51991942620665     -0.19251138124581     -4.14125187568145
  H           1.05661451150777      2.19432785213032     -4.46292805701997
  H           2.65104595727060      2.61200553839513     -3.66027915402052
  H           2.16790196415968      1.32305547933756     -0.82674039053318
  C           0.38020955649947     -2.87931190185033     -1.81180804654888
  H           2.32802047760708     -2.80655517825360     -0.88002841707450
  H           2.37433850849345     -2.49563433350731     -2.60665555099281
  H          -0.18211599137923     -2.66171890917656     -0.90725979802771
  H           0.40852959671471     -3.95553438812480     -1.95973910097548
  H          -0.14227486710946     -2.42450226185119     -2.64983015367406
  C           4.44749369253870     -1.09087495111984     -4.90783795685803
  H           5.32665207543878     -0.43606091257328     -4.89645987416111
  H           3.72884187644500     -0.70218960588860     -5.63758311427787
  H           4.74694880042783     -2.09825519344178     -5.18992849768460
