18
Coordinates from ORCA-job NEB_product E -34.750988772640
  C           2.26919104138549      1.65346408173394     -0.68682954846108
  C           1.19766855626880      1.07170772623256     -1.56965764127433
  C           2.30665393748855      0.90972999286383      0.65758131069517
  H           3.23569440050728      1.49123363060403     -1.18112185449932
  Cl          1.45664430296635     -0.64534494576182     -1.89249036712666
  C           2.03915328360813      3.18058710598219     -0.52065901636491
  C           1.05925520268279      3.52175667253670      0.57575330176266
  C          -0.19720993924831      3.84684074577584      0.34190789747808
  O           0.27118748091367      1.62973173650758     -2.04977244700291
  C           3.30227010264177      3.83567630721029     -0.25332941827245
  H           1.65974609694760      3.56674365801647     -1.47516948289043
  H           1.45884519765286      3.49674923705731      1.58042306914757
  H          -0.60084943782805      3.87872393235078     -0.65656894048421
  H          -0.87502982149555      4.08462269046809      1.14350882089202
  F           3.28867904294767      1.42976214997924      1.45120885243773
  H           2.54057712011167     -0.14867799528995      0.51074213195064
  H           1.36044365861575      1.01990493150672      1.19751283851316
  N           4.29037977383354      4.36978834222620     -0.04833950650074
