18
Coordinates from ORCA-job NEB_reactant E -34.737420778770
  C           1.68006117103941      0.06279620444695      0.71925234547070
  C           1.85369235333581      1.36038746119547      0.48408298882750
  C           0.33248141208200     -0.56748239671340      0.86438054747618
  H           2.53282423477177     -0.58161461183790      0.84694404636934
  Cl          3.46010662231850      2.00676845484118      0.34269780461210
  C           2.50965820072641      4.99889205867494     -1.30579953982582
  C           1.71853964169968      3.94201913417262     -1.13349710855766
  C           1.06301585922035      3.59415691219333      0.16640754991865
  O           0.82207141148039      2.20509725688174      0.30696934665967
  C           3.08175703207442      5.31493868857820     -2.55322561373187
  H           2.75574074783072      5.67085503146379     -0.49358265555717
  H           1.49135547651281      3.28148934955101     -1.95994127016013
  H           0.05960812630073      4.03574102873768      0.19728166075514
  H           1.64167053854161      3.97794740663819      1.01555603033715
  F           0.26542267743551     -1.27879175883478      2.04190861655677
  H           0.14256130663838     -1.29194230979174      0.06309049381928
  H          -0.45918141271472      0.18496174170141      0.89541295052406
  N           3.55461460070621      5.57938034810133     -3.56343819349387
