22
Coordinates from ORCA-job NEB E -44.823322852160
  C           0.40691197023283     -0.70993610944908      0.33201830623251
  C          -0.97374720464850     -0.56597999003000     -0.28643546603657
  N           0.46907783436037     -1.08139440397675      1.72038292128757
  H           0.96069403033696     -1.47163603045557     -0.22524209189125
  C          -1.42151557859729     -1.42415011420899     -1.26125805357276
  C           1.14744015714888      0.66032212660249      0.10138111393871
  C           0.25998404749270      1.82194042357215      0.25550043257905
  C          -1.08872053142621      1.53907393353175      0.78054476518264
  O          -1.63130446340978      0.58322014484306     -0.14873769832729
  C           1.87379908208254      0.68937069353851     -1.25045314870056
  H           1.91869563102884      0.66316749474311      0.88524229175644
  H           0.40236623628407      2.67655047590108     -0.38553684295551
  H          -1.76015689097229      2.39569474374500      0.73523095372346
  H          -1.09554779140835      1.11923242070155      1.79248295970735
  H          -0.25777084324908     -0.63960576772938      2.27179697046903
  H           0.33372881181283     -2.08011204992709      1.82181803975501
  Cl         -0.65103067363081     -2.89378592469433     -1.61363652535443
  Cl         -2.37882306772683     -1.98132517075377      1.28744203813529
  Cl         -2.91174018858006     -1.15193336537757     -2.03750937631702
  F           2.81535343712585     -0.30176989100610     -1.30452655398527
  H           2.40238692888216      1.63766318609538     -1.39111868133345
  H           1.17991906686119      0.51539317433455     -2.07938635429296
