22
Coordinates from ORCA-job NEB_product E -44.889618405560
  C           2.87521939862797      0.96742453126575     -1.42531431495134
  C           1.55294574524465      0.86991598473060     -2.16985557615380
  N           2.58588100361165      0.88568014150648     -0.00631455477221
  H           3.53027603113760      0.13299799261479     -1.69149045170832
  C           1.27485530655079     -0.49825415479347     -2.83397999902252
  C           3.62798426531709      2.28975400297452     -1.71578316911811
  C           2.79529940847886      3.50309504701745     -1.41956359903710
  C           2.85237297116517      4.16160209937913     -0.27651268794985
  O           0.71091617885623      1.72263310077865     -2.18748514519589
  C           4.10770592258278      2.32465192168087     -3.16494991035288
  H           4.49875617708870      2.27634220943193     -1.05294571038058
  H           2.11317865188971      3.80976668435979     -2.19926933709155
  H           2.23276422479355      5.02092038256657     -0.08683325484243
  H           3.52188747968511      3.86677976703327      0.51501692656117
  H           1.97725928196933      1.64624653495969      0.27747847285993
  H           2.15671284314240      0.00085413799498      0.23690785811895
  Cl          2.45180280767270     -0.70995846302005     -4.15235726059732
  Cl          1.48025450158114     -1.80648533944540     -1.64874124636832
  Cl         -0.36684392963703     -0.56072357370394     -3.48938919027859
  F           4.97664773998511      1.29076910772924     -3.40999870254561
  H           4.65303038381897      3.25110877605082     -3.37057374517247
  H           3.27579360643753      2.21577910888836     -3.86884540200115
