21
Coordinates from ORCA-job NEB E -54.519840130710
  C           0.66568345089303     -0.45560048653774     -0.11798320207640
  C          -0.13384443959445     -0.03879096487650     -1.32097687530572
  C           0.52460881248111     -1.96218482192456      0.18513624305661
  H           1.73357092167695     -0.27695989970236     -0.28963153630424
  C           0.67642599516675      0.89771332838314     -2.27020253436634
  C           0.22454772212347      0.46430693607347      1.10794920212428
  C          -1.22440951276747      0.25273955915971      1.43999811478963
  C          -2.19690738647601      0.99180838113092      0.94043172450594
  O          -1.27675954006905     -0.29551394930503     -1.54396810492541
  O           1.00027994909685      0.17199132419531      2.22377642219034
  H           0.38115451418846      1.50036402663964      0.77257938565429
  H          -1.41395592003069     -0.55141324597109      2.13283987630291
  H          -2.01158363844895      1.80984913406744      0.26324537384489
  H          -3.22482101437851      0.80639855309630      1.19439664787624
  F           1.71577095932513     -2.55946989887667      0.00110295369270
  F           0.15130373257626     -2.25331063032343      1.42630691056486
  F          -0.33226005940646     -2.58600728523496     -0.62599900097125
  F          -0.05376360918920      1.36699574219400     -3.26929926778671
  F           1.16082203299492      1.95209706344963     -1.58617032283272
  F           1.73491224405669      0.26007454825743     -2.78577186166812
  H           1.89922478578117      0.50491258610533      2.12223985163423
