21
Coordinates from ORCA-job NEB_product E -53.983292536740
  C           3.17626184034783      0.54119148807432     -1.11525661806040
  C           1.71675449001735      0.12213881354703     -1.24816603735675
  O           3.54102616222083      0.56530644582390      0.22283044849950
  H           3.84526774422876     -0.16227326163760     -1.62029380804778
  C           1.34655559800060     -0.77265320413188     -2.43345796473753
  C           3.29787744064477      1.94601815157326     -1.79601263916985
  C           2.44282827329817      2.97125042194643     -1.10625704072285
  C           1.34637719699573      3.47576996622914     -1.63830020349569
  O           0.90096306956028      0.42932146686872     -0.42775199152969
  C           4.76081033245175      2.38954289485436     -1.77395521637909
  H           3.01741278633671      1.85676517369868     -2.84933878849735
  H           2.78158393159372      3.27327013389105     -0.12507442013716
  H           1.00175737664707      3.18761646762522     -2.61782069317755
  H           0.75024261979185      4.20034055096580     -1.11332870522979
  H           2.81373500065834      0.93770004626003      0.74347234451647
  Cl          1.84656344069048     -2.39695995490451     -1.87117519152529
  Cl         -0.39325802536186     -0.74298168811713     -2.72841294606830
  Cl          2.21296669177830     -0.38225395596273     -3.92355874011013
  F           5.22110597523908      2.66554174730638     -0.55463370830952
  F           5.57420580409524      1.46540096000646     -2.30443324738069
  F           4.92706225076498      3.50294733608309     -2.50667483308055
