21
Coordinates from ORCA-job NEB_reactant E -53.979991918440
  C           2.01539081023483      0.45386233750394     -0.20253804442328
  C           1.46946262814280      0.15491080109645     -1.38554206921657
  O           2.16609632865145      1.72143864747637      0.27623372801526
  H           2.35711757191592     -0.35169364121907      0.42886265809242
  C           1.31742087602940     -1.25930299561824     -1.86354418228974
  C           3.81256233806026      3.18266534901280     -1.99310315526131
  C           3.00240970954370      2.31685684731221     -2.57820969066057
  C           1.51715611039037      2.31493632211157     -2.39821257470060
  O           0.99260433364806      1.00188835571730     -2.35110035447863
  C           5.29707614508750      3.15555646371430     -2.16232017182570
  H           3.46265995476336      3.96219855388891     -1.33378331505569
  H           3.39095005075277      1.53798740148288     -3.22195724507898
  H           1.04192859257653      2.75613940250161     -3.28118833824266
  H           1.23191086109219      2.88682126969410     -1.51010957083091
  H           2.68062496612537      1.70326018312628      1.08993441794249
  Cl          1.60965180583938     -2.47384317769987     -0.62231107294420
  Cl         -0.32470436033056     -1.49991416472193     -2.50391447758699
  Cl          2.48006010003781     -1.53888305000627     -3.19900947586079
  F           5.72192337340993      2.25394985305637     -3.05461406720084
  F           5.78509725734474      4.34564110514891     -2.55192104959650
  F           5.91730054668418      2.86302413642138     -1.00025194879623
