21
Coordinates from ORCA-job NEB E -33.190160028220
  C           0.20836822015692     -0.82582193447882     -0.73900441272232
  C           0.04829645516467     -0.00634210268928     -1.85191235478213
  O           1.47848991617190     -1.08398907880871     -0.31267312258965
  H          -0.50636884487029     -1.63197043896254     -0.59760969703634
  Cl         -1.62029151061173     -0.09027796360313     -2.49739842579321
  C          -0.42605775788632      0.59916277689675      0.68221874892565
  C          -0.52447878596118      1.79584536144110     -0.00720589078523
  C           0.57163450774347      2.23816687207268     -0.76391415897126
  O           0.67331499463935      1.05583330447489     -2.06958036705176
  C          -1.64273090199616      0.00285840517984      1.32719480273216
  H           0.51178417768468      0.41537024744225      1.19293701702886
  H          -1.51018412917657      2.13437833047835     -0.30102105806406
  H           1.56395825392935      2.05906964489977     -0.37073097001742
  H           0.47554770352053      3.14492353572604     -1.34253318015520
  C           1.60266593203331     -2.14239587166223      0.60913841101336
  H           2.67021410774112     -2.29637228762091      0.75326976389458
  H           1.15031018926129     -3.06128626079454      0.22265168592174
  H           1.14045923579013     -1.89381156482190      1.57092821749538
  H          -1.46370542670941     -1.01566645980548      1.66301934074041
  H          -2.48116574530398      0.00397717355163      0.63460807878249
  H          -1.92006059132108      0.59834831108423      2.19761757143396
