21
Coordinates from ORCA-job NEB_product E -33.241018503880
  C           0.43666885654308      0.65642693611942      1.51722103691192
  C           1.16456247620511      0.96765137908159      0.22802507338687
  O           1.29278511115948      0.02472635763923      2.43084920798473
  H          -0.44253563039972      0.02903952144479      1.29949573868352
  Cl          0.07240272224119      0.98220400421709     -1.16720103083233
  C          -0.01593474824366      1.99833886302922      2.15011493038843
  C          -0.85114611781277      2.79740546059606      1.19588101569051
  C          -0.52323227956310      3.99290131467909      0.74461419012668
  O           2.31330140988825      1.20392114304364      0.08071263426143
  C          -0.80257643239094      1.70840060508357      3.42878036103917
  H           0.89502736693357      2.54755162317322      2.40412604181611
  H          -1.78692681326024      2.33792685932520      0.90571072416829
  H           0.40292777139058      4.46898079766404      1.02210164111182
  H          -1.16215070252551      4.54388719216247      0.07630242787399
  C           1.63871914414534     -1.29572017016557      2.08176200243781
  H           2.23732817455802     -1.67675807092190      2.90618047933099
  H           2.22765574559688     -1.33126989043309      1.15989659783533
  H           0.74392894609493     -1.91814547759103      1.95911334020889
  H          -0.20139303931637      1.10606942720953      4.10329524023374
  H          -1.72128657190143      1.17304927403620      3.19860456311945
  H          -1.05872538934268      2.64361285060724      3.91981378422266
