17
Coordinates from ORCA-job NEB E -36.198014808140
  C           1.09742729747515      0.45207260153588      0.69234503086857
  C          -0.28718222967037      0.60188178959320      0.78207967872003
  Br          2.13714279584554      1.96247464041407      0.12965162164566
  H           1.61241594803209     -0.07077322267131      1.49218072271137
  C          -1.05863938211017     -0.17723247094393      1.80043775436983
  C           1.21443155126714     -0.72253503844850     -0.88884862017995
  C           0.44281265743355     -0.02932071457153     -1.80256751485978
  C          -0.94838672983973      0.18940775186330     -1.50037016167245
  O          -0.95599941653957      1.10258461274182     -0.22574179536870
  H           2.28034384312679     -0.78302511177762     -1.06153668196141
  H           0.80074834482663     -1.59933991406011     -0.40888529834967
  H           0.92257463120737      0.66934463075093     -2.47335274318094
  H          -1.50653494200933     -0.69530916811807     -1.19414418699671
  H          -1.50301988891709      0.78654303803070     -2.21582990766363
  Br         -0.51978029045879      0.33907696010008      3.61011483495549
  Br         -2.95109671073122      0.14504165735948      1.57934535885810
  Br         -0.77725747893801     -2.17089204179842      1.68512190810418
