17
Coordinates from ORCA-job NEB_product E -36.236789256580
  C           2.00372942704121     -2.00801283614791     -0.79246407099710
  C           0.71851961312502     -2.45228656142453     -0.15475132943804
  Br          1.73773414192591     -0.05742932323919     -0.94981583871618
  H           2.87417428942430     -2.13721870010411     -0.14655013834796
  C           0.77339768512583     -2.68129024073477      1.35055012651048
  C           2.21395003604295     -2.63835665743374     -2.16393139822569
  C           3.45410766531605     -2.10637810923579     -2.81399721145725
  C           3.44889441783935     -1.36920332607247     -3.90749961263608
  O          -0.29533131289239     -2.66997381719795     -0.75074219192854
  H           2.30310612608071     -3.72021391933038     -2.01615555951240
  H           1.33781744706919     -2.44587607195114     -2.78650626311529
  H           4.38110191596468     -2.34786811762265     -2.31073859106366
  H           2.53440716736581     -1.11423054392418     -4.41716514133473
  H           4.35859751627495     -0.99221768496176     -4.34071661251314
  Br          1.70479548061894     -1.31072433368559      2.34409664938040
  Br         -1.00529296419380     -2.92635860343769      2.05710289223130
  Br          1.77669134787131     -4.37286115349618      1.48978429116389
