24
Coordinates from ORCA-job NEB_product E -45.031655794480
  C           2.62675772397529      0.85041442235992     -0.80128938032575
  C           1.36739914662099      0.03462499931556     -1.15128771967898
  O           2.47958700790244      1.60007138678062      0.37462091758556
  H           3.48632308691892      0.16139208881452     -0.71442686843564
  C           1.63130378209914     -1.18667298051370     -1.99059770400941
  C           2.87799697249760      1.83969190013055     -1.96273438437655
  C           1.77578753711644      2.85800877406509     -2.05169797951770
  C           1.05945297204463      3.05863920346919     -3.13985205439642
  O           0.27743588859260      0.35102896844441     -0.76195194336141
  C           4.21625072111791      2.54970970713301     -1.76574210299004
  H           2.96828853229907      1.28613128344142     -2.90346713509586
  H           1.60395590735755      3.41031633124134     -1.14072590610896
  H           1.22648296395415      2.50215851337484     -4.04808473468944
  H           0.27430535373807      3.79279127846607     -3.16593157967970
  C           2.43804990816009      0.82745263905973      1.54980510319559
  H           3.33750780158021      0.20591516184086      1.64363014874239
  H           1.55089651598342      0.18721375639689      1.58145540866292
  H           2.40070999791327      1.53871483731678      2.37140340446482
  H           2.41150677154602     -1.00822779130754     -2.72490263845334
  H           0.71465681910104     -1.50490478642680     -2.47963484526492
  H           1.96549670064291     -1.98737596277579     -1.33133186857400
  F           4.25080282879998      3.39722751594682     -0.74195618599640
  F           5.22320731041559      1.67420588450706     -1.57954595774666
  F           4.54523774962264      3.25677286891916     -2.86125399395010
