23
Coordinates from ORCA-job NEB_reactant E -40.955870426110
  C           1.57137796526064     -0.47958609093273     -0.11481304498094
  C           1.47473182387572     -1.81219866065842     -0.24491659264844
  C           2.10013964704151      0.56863215291247     -1.03435706935065
  H           1.20457045044936     -0.07285998295745      0.81366118716892
  C           0.91337686222795     -2.62187223947548      0.90093691450223
  C           2.31984256222067     -3.49478752087571     -4.52557033622408
  C           2.70996405643906     -3.40544027488218     -3.26955302332575
  C           2.46662505621265     -2.19782140746616     -2.42390668884628
  O           1.82273185023829     -2.64248793127366     -1.23561415037190
  F           2.56980910880909     -4.58386358211085     -5.26649916376795
  H           1.79888230217628     -2.73309970860608     -5.08780773286002
  H           3.22052894524413     -4.23020079503833     -2.79574768002133
  H           1.83978343546873     -1.48084321597519     -2.96086042275407
  H           3.42751273522012     -1.73191974397123     -2.17334096681249
  F           3.41795363097874      0.39939477092424     -1.35976949337127
  F           1.44565778713005      0.62275707303777     -2.23441591105708
  H           2.01468219785617      1.56952605382275     -0.58703207908579
  C           2.03403224538010     -3.04518505550331      1.85077697556089
  H           0.43674478785111     -3.51036103725214      0.48639836831744
  H           0.16857921065239     -2.03922856500620      1.44123072484713
  H           2.77491652689611     -3.63649886794029      1.31921736955890
  H           1.63024469658166     -3.64434375763696      2.66271195086029
  H           2.52521211578949     -2.17161161313485      2.27247086466223
