23
Coordinates from ORCA-job NEB_product E -40.965872486720
  C           2.01914471360305     -1.60615609104622     -0.92889096190331
  C           0.67075353509064     -2.12252228664930     -0.39829686971118
  C           1.87159893190765     -0.11923114374036     -1.26017770885491
  H           2.79881135083720     -1.69651189176264     -0.16771357345667
  C           0.65808587808002     -2.50053416618977      1.05933882405763
  C           2.43090327328803     -2.41890303079523     -2.17483558077688
  C           3.66783729154735     -1.88410297176754     -2.82734240470767
  C           3.67188280681012     -1.30481429258581     -4.01202538589185
  O          -0.28336459751539     -2.21351165793920     -1.12068720070585
  F           2.66994370788015     -3.71467723504967     -1.74458255205441
  H           1.58840791525280     -2.47102455778824     -2.87464774570348
  H           4.57361169517500     -2.00815573693460     -2.25047319495226
  H           2.76781151783754     -1.17695947317339     -4.58369692381716
  H           4.57708007490961     -0.91751933179107     -4.44548962849400
  F           3.08627623548209      0.48119238121992     -1.32690221128531
  F           1.28290853945080      0.08293293212730     -2.45448426505590
  H           1.28389690858301      0.42219081710784     -0.50062250101794
  C           1.33095647289744     -3.86455605064038      1.24326113933660
  H          -0.37803599327247     -2.55887989356004      1.39519629693406
  H           1.18617202317468     -1.74408798980871      1.64316280687236
  H           0.80071611511826     -4.62253225097438      0.67322493616470
  H           1.31559386459576     -4.14286432948111      2.29359783552693
  H           2.36250773926668     -3.84567174877741      0.90278686949650
