20
Coordinates from ORCA-job NEB E -37.756167055410
  C           0.78947656519591     -0.55356911260576     -0.79960248011475
  C          -0.31890046035890     -1.34472671631807     -0.51968219883543
  H           1.71634130459795     -0.78184518427987     -0.29545809813051
  H           0.90449860437394     -0.18524078434341     -1.80985597569019
  C          -1.51092837720483     -1.35390586442471     -1.45390880481477
  C           0.34422552908884      0.99080293831963      0.27815587451806
  C           0.13370596101626      0.43888451546461      1.53913463809966
  C          -0.91260347174244     -0.53316981913885      1.66808089678790
  O          -0.51832478178556     -1.73637587907342      0.71979983862301
  C           1.51609827584244      1.92518196856607      0.09540000794003
  H          -0.51063946020143      1.31543837646366     -0.30528958952419
  H           0.98021742375204      0.35875496191304      2.20620454295167
  H          -1.88313698913761     -0.22553498217402      1.28132865564968
  H          -0.99533366557350     -1.01134275478650      2.63728085603680
  F          -1.74184423973426     -0.10145697579143     -1.98619015786163
  H          -2.41703973026378     -1.65286012224229     -0.91791142096359
  H          -1.34355735206433     -2.02467657112466     -2.30377962088207
  F           2.66689620083094      1.39195882551804      0.57270688116358
  F           1.73830913368844      2.19294481083478     -1.21320814297302
  H           1.36253952967989      2.89073836922316      0.60679429801976
