20
Coordinates from ORCA-job NEB_reactant E -37.785858391570
  C           1.36699346001344      0.27399815052869      0.19167669184596
  C           1.41451598662267      1.39184356788444     -0.51697685287715
  H           1.81317981082965      0.16483689370363      1.16184248063322
  H           0.85816557115107     -0.58312305635838     -0.20628487916135
  C           0.78634712162553      1.54369604734914     -1.88078577225442
  C           3.23069477914852      4.96638113362572      0.38886300605502
  C           3.29041026269697      3.97785788239797      1.26434071650370
  C           2.67674413576695      2.63083701696483      1.06415660925600
  O           2.01102368109625      2.57236731927088     -0.17689302719017
  C           3.85427904733410      6.30935689971636      0.60977296150802
  H           2.73455611410407      4.85348017181926     -0.56213218914224
  H           3.80157096264530      4.10250948306395      2.20880878274795
  H           1.97103599235965      2.43053407724181      1.88514449470435
  H           3.46793242207049      1.86675659270706      1.10901509317447
  F           0.12812280808999      0.41137385071104     -2.26755114100636
  H           1.55613063908587      1.74895299883547     -2.63368114778628
  H           0.05678562055426      2.36158507680315     -1.87346100143394
  F           4.53421240996056      6.37857355251613      1.77905224232904
  F           4.75707253013412      6.58683127061791     -0.36949740238154
  H           3.11432664471056      7.12885107060093      0.60609033447573
