24
Coordinates from ORCA-job NEB E -45.445626297850
  C           0.90156818766361      0.49875324715286      0.76486001081081
  C          -0.40430062491676      0.03835753296876      1.08173900121268
  C           1.14891639754796      1.89884383783745      0.85287072373629
  H           1.73161926680577     -0.09640100358769      1.13844165561237
  C          -0.57386948935243     -1.31823098910966      1.71945972385112
  C           0.83429993065787      0.24975849763953     -1.12819577272646
  C          -0.22527492951249      1.07947813617201     -1.51864216542816
  C          -1.51390749823688      0.75556067346581     -1.00734124508937
  O          -1.43010173774140      0.66915769000525      0.61022442248319
  C           2.21290490714891      0.56408899041351     -1.65318690911753
  H           0.67848581015843     -0.82660721216613     -1.13860138696074
  H          -0.00145320312920      2.11261589264908     -1.73997303597988
  H          -1.87386137755102     -0.24920082249267     -1.21206910404854
  H          -2.28287693846072      1.50332011901683     -1.15882847205527
  N           1.31791768423932      3.02518312008613      0.95583250776656
  C          -1.82589329328140     -2.04949973369727      1.24414424149862
  H          -0.64217092046011     -1.16612963463410      2.80197889837698
  H           0.31938531450942     -1.92068744470624      1.53698018984613
  H          -2.69700078154163     -1.40869530718166      1.35353881722394
  H          -1.97828654469970     -2.94923387748193      1.83392961219240
  H          -1.73363095983668     -2.33917361137510      0.19949759597125
  F           3.18434899656823      0.01148503717704     -0.90458787755979
  F           2.36974936425209      0.05251325543155     -2.88937936092142
  F           2.48343243916881      1.86474360641666     -1.74269207069518
