26
Coordinates from ORCA-job R E -31.037578623430
  C          -1.42820077141387     -0.41347910158259     -2.56388336201107
  C           0.43131879275110     -2.67667897905217     -3.35781389208607
  C          -0.65914530398472     -2.76898221734144     -2.59777326766987
  C          -1.55758776837187     -1.70440678453138     -2.22191614270922
  C          -0.18665288314330      2.75889031746432     -0.43630004590425
  C          -0.27410462247988      1.51090499476362      0.02411132732016
  H          -0.91856463945871     -3.74059645927561     -2.19296806395847
  H          -2.39769163514468     -1.98954907157141     -1.60066783147334
  N          -2.33195195251082      0.57409985987887     -2.25472074411049
  H           1.04065896187164     -3.53810737000173     -3.57039104934425
  H          -0.61105905021861     -0.08180535706222     -3.18599952764209
  H           0.75094889758001     -1.74994426100372     -3.80216154149261
  H          -0.87767722884065      3.50820302417393     -0.09646874971985
  H          -1.04516600367585      1.26951585720679      0.74590671277045
  H           0.55915882054486      3.08239420492506     -1.13874212646143
  N           0.45741753407894      0.41958200471863     -0.36138895561032
  H          -3.00102601374395      0.33037038543130     -1.53886533753583
  H          -1.95110797203100      1.50218532918405     -2.14681758008480
  C           0.47997672447249     -0.74733564735034      0.48122134671969
  C           1.61693405128138      0.58477612901470     -1.19880046317078
  H          -0.45316334451139     -0.82237260267109      1.03595193703504
  H           1.31139119049770     -0.72314579546050      1.19867413179486
  H           0.58354354048575     -1.63781945760906     -0.14230573323649
  H           2.47590396057359      0.99022640423078     -0.64787263457926
  H           1.38366529478782      1.25814407222844     -2.02124647659132
  H           1.89066142060404     -0.38577947870722     -1.61130193024838
