20
Coordinates from ORCA-job NEB_reactant E -37.242405801740
  C           1.50115885912204      0.13252031268878      0.20418063807362
  C           1.49916313932516      1.41908932331752     -0.11782468873588
  H           1.97544133853378     -0.26571805958001      1.08189193134977
  H           1.00793734966872     -0.57929235734386     -0.42995347775706
  C           0.83493438474354      1.97129493823242     -1.34305534040780
  C           3.19076433224446      4.54939002208789      1.91191672360437
  C           3.32166252216692      3.33321684414491      2.41826297499113
  C           2.75536757548292      2.10606128609412      1.78231211292495
  O           2.08428355977509      2.43110882865089      0.59283032619807
  C           3.73187971349613      5.79643106927661      2.50342717925897
  H           2.65061430707367      4.69786750126635      0.98822736065242
  H           3.85673712156658      3.15701806318384      3.33995475805379
  H           2.06712589061111      1.62233597183294      2.49377831953108
  H           3.57598535674180      1.39883400305908      1.58162890305378
  H           1.56732493578256      2.49796171849990     -1.95180314527927
  H           0.06698354588292      2.68633075871875     -1.05381696343392
  H           0.38477808487836      1.17586891356908     -1.92694877551959
  Cl          2.38749242972578      6.93208683313581      2.82814613199651
  Cl          4.61720294313857      5.54928736578024      4.01488331968737
  Cl          4.83956261003988      6.57760666338475      1.33446171175771
