20
Coordinates from ORCA-job NEB_product E -37.261262817300
  C           2.32946963292438      2.30305558626025      0.35409642631137
  C           0.95225367998810      2.70365917624594     -0.15884580990672
  H           2.28663635330267      1.22583103235049      0.53802396723410
  H           3.09632075770035      2.48804881749286     -0.39685585274896
  C           0.83033957207887      2.71441635671406     -1.65674978388529
  C           2.66907509374906      3.00224277211768      1.67832793314784
  C           3.59986567258406      2.17234666156310      2.51693776061495
  C           3.30516234521638      1.75032761072815      3.73110544108025
  O           0.04144984702350      2.95371743267951      0.58575757946083
  C           3.28349222508148      4.37743181037324      1.42031065358663
  H           1.73076036683621      3.16369450067257      2.22309087529024
  H           4.54455694865341      1.92471291301545      2.05397180454676
  H           2.36762758113860      1.99100214035147      4.20433197204225
  H           3.98862812350727      1.14533695624932      4.30109837896174
  H           1.41472954117695      3.54448586347470     -2.04963278535275
  H          -0.20785882721348      2.83941597905639     -1.95142628250721
  H           1.22915246923430      1.79274600878239     -2.07380412588679
  Cl          2.20645676223224      5.38369659181503      0.42324787837513
  Cl          3.56398117722884      5.21754724703226      2.96219925087431
  Cl          4.84350067755681      4.25028454302514      0.57321471876133
