21
Coordinates from ORCA-job NEB E -48.727091970230
  C           0.69256247996072     -0.68003604385292     -0.15026303957757
  C          -0.40573627471617     -1.18278501524835     -1.06293825914476
  C           0.55174193105897     -1.36652523106356      1.21822323370649
  H           1.67344249988638     -0.99263542278526     -0.52183597394686
  C          -0.06216764533350     -2.04242291257872     -2.09899883935635
  C           0.52847441569359      0.84853363766590     -0.29140597620821
  C          -0.89659758841360      1.06348190313183     -0.62768268162873
  C          -2.00915433575770      0.14940151223562     -0.26621950478893
  O          -1.69737536617261     -1.15815215057406     -0.64454276600187
  C           1.06769296040797      1.81766435210514      0.78740266335754
  H           1.13409663081816      1.10722451730618     -1.17498601262231
  H          -1.19297791505536      2.09126951987565     -0.79638929225760
  H          -2.91239968897951      0.41470373631867     -0.82669943605488
  H          -2.26936896710901      0.22628284421552      0.80175747995839
  F           1.54798964366705     -1.01128080701441      2.05500078008250
  F          -0.59998158192588     -1.07496881281277      1.85718812975031
  H           0.59334768473784     -2.46077243693874      1.09286567311810
  N           0.26533827348391     -2.68625721401318     -2.99845337289614
  Br          0.96246990221158      3.64797760675350      0.06276367932099
  Br          0.06110596119309      1.81686003010602      2.44917200406498
  Br          2.96749698034406      1.47243638716794      1.13604151112488
