21
Coordinates from ORCA-job NEB_reactant E -48.774993094010
  C           1.98068973521151      0.42055851081244     -0.00154874210288
  C           1.48354691118664      0.81880727257679     -1.18318979052931
  C           1.74248315830872      0.94348657821945      1.38158978117247
  H           2.67923764463952     -0.40376210359265     -0.02213086215350
  C           1.91167410567250      0.05697788410645     -2.32088638223687
  C           1.44785768867430      4.73594310312699      0.42445566817277
  C           1.41315994859812      3.82896451483004     -0.53802449782510
  C           0.27592081273259      2.87078555722347     -0.72657621329599
  O           0.62132676450772      1.78405214968319     -1.56089975017650
  C           2.52448388777280      5.72199997342930      0.64984924352923
  H           0.63903449633554      4.81710634297398      1.14069266370736
  H           2.21066946286727      3.73808886564541     -1.26345833601739
  H          -0.52682786126851      3.37104709388889     -1.28235049311006
  H          -0.13380406224504      2.54190273464444      0.23318905417151
  F           2.31761113536577      0.11373305672251      2.27715211327010
  F           2.32012863651422      2.16380828642044      1.58153283042003
  H           0.68058937503589      1.03548295667016      1.66536198744405
  N           2.25988009065050     -0.55411757436480     -3.22197452313562
  Br          1.79261192600177      7.53823211153490      0.35626145052293
  Br          3.13481581221785      5.61674125387227      2.51559651776898
  Br          4.07031033122031      5.51576143157632     -0.49794171959621
