21
Coordinates from ORCA-job NEB_product E -48.780749052060
  C           2.21817620995583      1.93783183596383     -0.02024993134746
  C           2.45952750010607      1.41673902166845     -1.44740760531235
  C           1.29241352022752      0.89223508007983      0.62302232086832
  H           3.14825395021892      1.96072442229043      0.55871023075975
  C           3.77518704429771      0.83674399664078     -1.62569776359405
  C           1.53759351182064      3.32029964409750     -0.07294398161929
  C           0.74927027860597      3.63032142527307      1.17077808142364
  C          -0.54195914730553      3.90271226859963      1.15342182913274
  O           1.60372075654755      1.43802699348493     -2.28973337935375
  C           2.56481151369808      4.42703316196641     -0.30558263790350
  H           0.85588333763362      3.32273771456102     -0.93678730415641
  H           1.30570290683299      3.62806689127998      2.09728119663438
  H          -1.11603865181410      3.91214882408173      0.24086646922500
  H          -1.07563919475557      4.13245220045425      2.05812122839266
  F           1.79513055214338     -0.34660542486316      0.42404350487801
  F           1.22318526440953      1.05371173262998      1.95878771990832
  H           0.27083028642233      0.91901675713298      0.21432992109126
  N           4.82632056979900      0.40005467886509     -1.73459318630655
  Br          1.65140766031828      6.13397080279551     -0.51813791389570
  Br          3.82261018310811      4.59498692648636      1.17684403711088
  Br          3.61941194772969      4.10769104651136     -1.93927283593590
