15
Coordinates from ORCA-job NEB E -27.451894036240
  C           0.55660820366770      0.79163070886923      0.30452948042931
  C           0.90460943836530      1.41133073736758      1.53217926947149
  C           0.58168437977038      1.47875551232137     -0.96041679807657
  H           1.56891858724469      1.96596504306825     -0.78937046424071
  F           1.36675056730608      2.71093310863243      1.34583606422249
  C           0.33727632437883     -0.68586716354437      0.23368105981596
  C          -0.77697444885552     -1.03182938870986     -0.70179788598182
  C          -1.73769685488015     -1.89486544112198     -0.43555063219232
  O           0.79623562090102      0.99517539844239      2.64500274142706
  H           1.25498060035621     -1.20424791198494     -0.07900820125066
  H           0.12514626094500     -1.01480779611092      1.25550526299214
  H          -0.76128581818633     -0.50050129593914     -1.65194249231718
  H          -1.78273386910439     -2.42774667998095      0.50015239835512
  H          -2.51462990903193     -2.11138873847040     -1.14737605412082
  N           0.08111091712310      1.51746390716130     -2.05142374853349
