15
Coordinates from ORCA-job NEB_reactant E -27.530517794310
  C           1.74326107288116     -0.17074271383543      0.04509041604733
  C           1.64048547869998     -0.87824371592558      1.17976173741312
  C           1.36995797999041     -0.58772118721573     -1.23743636784684
  H           2.15713145563977      0.82486799948870      0.11132038693590
  F           2.05821627898630     -0.29626668712670      2.31298264359500
  C           2.04723987802336     -4.94192083334506     -0.28550577444228
  C           1.88054330945272     -3.63403025934316     -0.25384819674808
  C           0.73433154927725     -2.96390785255704      0.44499065829142
  O           1.17599515076869     -2.07918923749563      1.47339886668707
  H           2.87356150955314     -5.39313446620249     -0.80613704091807
  H           1.35760994455449     -5.61465996983531      0.19700937256205
  H           2.57912719587452     -2.97118800290485     -0.74465465794792
  H           0.12122952024599     -3.70107586679815      0.96838241290351
  H           0.11361338852783     -2.41868019450102     -0.27554259482793
  N           1.08769628752439     -0.88070701240252     -2.31161186170428
