15
Coordinates from ORCA-job NEB_product E -27.548577434630
  C           1.96361630175862     -1.56514329925652      0.26777527507528
  C           2.99940738499130     -1.19013759893564      1.29779734550805
  C           2.42180037921907     -1.06808815756229     -1.01483373340281
  H           1.02332841910522     -1.05306549573539      0.51007526829421
  F           2.92541406376289      0.13523355360683      1.58781479088815
  C           1.76165244048649     -3.09344425302939      0.21704526243338
  C           0.68195687339369     -3.45885343189536     -0.75477714252951
  C          -0.42285243146406     -4.09763768441488     -0.42156672588134
  O           3.79749626228607     -1.86940741087021      1.83250938976091
  H           2.70461210463202     -3.55984969768232     -0.08087554799776
  H           1.50846638796108     -3.44639733141270      1.21829916079713
  H           0.86021657861211     -3.15641259425564     -1.77831485591665
  H          -0.61666089091257     -4.40717376481947      0.59271306664950
  H          -1.17519089699833     -4.34854373888084     -1.14858899444733
  N           2.77503702316639     -0.70037909485615     -2.03567255923123
