18
Coordinates from ORCA-job NEB E -30.200148056180
  C           1.04839756848261     -0.35073220082480     -0.24410951099687
  C           0.56479968505736     -0.03885699361212     -1.52071354695541
  C           0.62949781151047     -1.64660630654663      0.40734684951346
  H           2.08867538188510     -0.10658050592446     -0.04614345099057
  H           1.13342943637815      0.66965116629550     -2.13448888067785
  C           0.03669811428136      0.93568124867620      0.81070158538413
  C          -1.28074517685526      0.60710901927039      0.45304579882922
  C          -1.68724057540501      0.77829891684502     -0.87870763873274
  O          -0.66589463470292     -0.24321455939068     -1.81238254329820
  O           0.40186442061467      0.70083164181525      2.10703473355584
  H           0.46585335470423      1.83632610334761      0.37479887109332
  H          -1.77952067976754     -0.12433508489698      1.06995530769612
  H          -1.42922353869489      1.70776247963916     -1.37240628777613
  H          -2.66369506181866      0.40448105893325     -1.15084832252071
  F           1.63241116463112     -2.57668302249955      0.23604541371118
  H          -0.26886716126944     -2.04844110890040     -0.06905464484910
  H           0.48785203424409     -1.54656447836999      1.48871205315566
  H           1.28570785672458      1.04187262614325      2.28121421385864
