18
Coordinates from ORCA-job NEB_product E -30.234634955450
  C           1.71202196077173      1.52241364009403      1.44246209707552
  C           1.42124835291963      1.61611086594790     -0.03698873620007
  C           1.31114699050581      0.16877233991382      2.02253501593986
  H           2.78305955033185      1.66902746717387      1.61372079663874
  H           2.00630685507252      2.40448465121320     -0.55017962410853
  C           0.97307036976807      2.68365311382871      2.15582338177395
  C          -0.51817207342033      2.51261531825250      2.05493599801724
  C          -1.27487651866160      3.15457079085783      1.18605743867265
  O           0.62311606903678      0.95066871720545     -0.62816790019085
  O           1.41961115227637      2.68509250561966      3.49518005838868
  H           1.26796000895849      3.62451519938472      1.66041546375469
  H          -0.94289925220465      1.81191854464380      2.75996809593083
  H          -0.85968952481863      3.85548584705957      0.48025944004969
  H          -2.33777090135694      2.99768159170931      1.13421398644600
  F           2.27432005171100     -0.76212016323666      1.72251234229507
  H           0.37456804172071     -0.18827393514440      1.58361803929334
  H           1.24948463110382      0.21960785422550      3.11295866666601
  H           0.93299423628537      3.35497565125118      3.98727543955719
