23
Coordinates from ORCA-job NEB E -51.620703149460
  C           0.39885906873069     -0.43974484711091     -0.83625371113143
  C          -0.83155592519731      0.09809202066974     -1.26465060453945
  C           0.45428780622927     -1.93689581506944     -0.61044701048992
  H           1.27199255222019     -0.09115348672621     -1.38489713484773
  C          -0.83765815270638      1.37865132727288     -2.08086592893142
  C           0.51467866906855      0.38191377327453      0.87127064842855
  C          -0.68811792248109     -0.00655161259475      1.48383415917636
  C          -1.91555994389211      0.40046509605057      0.88300963554084
  O          -1.91760774563956     -0.20045522294223     -0.60910434600691
  C           1.80563823913099      0.07485587470906      1.58370051191827
  H           0.55866504602639      1.40638292782943      0.50337796194173
  H          -0.69753680341663     -0.87314824388734      2.12946446830062
  H          -2.01691487991541      1.46423900963374      0.68142080932857
  H          -2.81446872299784     -0.02440318748865      1.31337352850583
  F           1.74588868168079     -2.34077198930405     -0.42178144253411
  H           0.09879452348143     -2.44757189045526     -1.51243703129737
  H          -0.13128073283791     -2.27132046111576      0.25062032054543
  F          -0.43629543250588      2.44709510415860     -1.32345449226239
  F           0.04045856823811      1.30500117674080     -3.10256317049008
  H          -1.83480591210464      1.61120464957322     -2.47986906421997
  Br          1.98517480278428      1.44914391674928      3.00687269649742
  Br          1.87637683326469     -1.64299668721805      2.47867230249671
  Br          3.37098738283938      0.25796856725078      0.44070689407041
