23
Coordinates from ORCA-job NEB_product E -51.657379031260
  C           2.88629071780900      0.57567401392268      1.04669161324435
  C           1.62605956865244      0.92939031423100      0.28702104007448
  C           3.08729775111323     -0.94233228093754      1.02235443793469
  H           3.73612518451291      1.02512345391826      0.51369457656496
  C           1.44507180774155      2.43005857996519     -0.05319823550910
  C           2.78558438824438      1.25050296656036      2.44156674771260
  C           1.55035648800352      0.80946174809709      3.18155831878704
  C           0.70467573920847      1.65341238811738      3.74226194232797
  O           0.79149397906607      0.14161737652767     -0.05400057412017
  C           4.01901065292526      1.06870223160316      3.33191304005254
  H           2.72235886914897      2.33313509565768      2.26908299656251
  H           1.39158005119256     -0.25695722472177      3.25205704376596
  H           0.83495723784511      2.72148434645870      3.68894007780711
  H          -0.16186872990010      1.30331613699274      4.27432919820556
  F           4.41790602330336     -1.23431866689622      1.14155050461671
  H           2.75769711899949     -1.34283280573526      0.05838895039517
  H           2.56326894012909     -1.46473394291599      1.82609505168967
  F           0.71223103043936      3.03238731278844      0.91187799822964
  F           2.62853881133612      3.07980164673894     -0.09721835259731
  H           0.92702884912876      2.56223763256282     -1.01426350927181
  Br          3.87805279776171      2.34267393337096      4.82221454463359
  Br          4.17930486186298     -0.69146427636372      4.13841338212812
  Br          5.67957786147575      1.48716002005745      2.38926920676574
