23
Coordinates from ORCA-job NEB E -43.297352809520
  C          -0.13582529714854     -0.90288762771246     -0.47460312957654
  C          -0.94171665259509     -0.15824647741748     -1.36629355169064
  C          -0.75513218424683     -1.90342649049146      0.41128563287557
  H           0.80336290805904     -1.26946853488112     -0.88588178129818
  N          -0.37303597681142      0.26926957867059     -2.54675379108706
  C           0.49550726797810      0.75286359617750      0.66759943322314
  C          -0.73748986091261      1.27683405984893      1.05823030902414
  C          -1.60311782413015      1.78609559498850      0.08899197631555
  O          -2.01473071762669      0.40239944351261     -0.97812552510065
  O           1.31240476162689      0.25242955805226      1.61490573614788
  H           0.99052929773628      1.18343160989507     -0.20308506681990
  H          -1.12002357475862      0.98335349732871      2.02300475147995
  H          -1.18584636114903      2.37799901247250     -0.71553246551055
  H          -2.59508085323355      2.07822038494565      0.39696741758664
  Br         -1.13734774288821     -3.56932811622285     -0.73210238620262
  Br          0.44003526846680     -2.54547790882172      1.80705963423382
  Br         -2.43780636196469     -1.45658409488160      1.22580460033389
  H          -0.99360367010466      0.77011052911395     -3.16329846701075
  H           0.29880573729562     -0.32611688214766     -3.00130571431233
  C           2.65826679974844      0.04527845959457      1.25050629524909
  H           2.75069147482238     -0.72021602700088      0.47414003396111
  H           3.16352755581971     -0.30045617972862      2.14933089522250
  H           3.11762600601685      0.97392301470500      0.89915516295594
