23
Coordinates from ORCA-job NEB_reactant E -39.637763650470
  C           2.39083288408072     -0.04457347960289     -1.36659006398343
  C           1.39011267091411      0.17382864487544     -2.21799418562114
  O           3.13583546040429      0.93043581155572     -0.72584882177159
  H           2.64615456409616     -1.06751578776262     -1.13183736548208
  C           0.60553024027633     -0.96918148470273     -2.80457402661431
  C           3.44728790155404      2.06066195204700     -3.68958732035484
  C           2.87616564968935      2.77885855553924     -2.72736228748595
  C           1.49487933417328      2.56181920874056     -2.21240795336045
  O           0.88604928444029      1.37637229851027     -2.65351540947451
  N           4.78861825303407      2.31123178245377     -4.10508388939479
  H           2.97552758631797      1.24519170597496     -4.21522255939070
  H           3.43988610036751      3.57693110182968     -2.26251449561572
  H           0.84854689611053      3.37080869549079     -2.57564635757517
  H           1.51588528650124      2.61006778638286     -1.11663627981683
  H           3.93181967615462      0.53186697440929     -0.36288165407360
  C          -0.68567697080770     -1.20745728595757     -2.02120837406723
  H           1.21318115045316     -1.87365444707233     -2.80294592082645
  H           0.35524957427322     -0.71504630863047     -3.83532030135624
  H          -0.46036653131296     -1.47467573725594     -0.99165344553958
  H          -1.25787120491469     -2.01334909263740     -2.47363003360329
  H          -1.29300154904799     -0.30651243722460     -2.02128372001489
  O           5.40429923455161      3.21343517682161     -3.57541569723015
  O           5.23295450869085      1.58835636621537     -4.97413983734706
