22
Coordinates from ORCA-job NEB E -39.770346167950
  C          -0.70198178941928      1.35349237390778     -0.49095335187873
  C          -2.05391386386167      1.06591811711439     -0.28207607913985
  N          -0.04723130658731      0.88204691052190     -1.67683238382481
  H          -0.34520675366371      2.33131196696077     -0.18724384330184
  F          -2.69377003069182      1.98421961533312      0.51192006620534
  C           0.11074910151742      0.01613220760567      0.84885494214437
  C          -0.51943426738680     -1.14267895029377      0.41253315569188
  C          -1.90757416906455     -1.28422602972242      0.56963590934020
  O          -2.61732406649063     -0.02547413456681     -0.44838502799985
  C           1.60395255592408      0.21471542291104      0.77910262895901
  H          -0.34446402339840      0.53608405901585      1.68700771275233
  H          -0.03147827771804     -1.76726779303486     -0.31885978698719
  H          -2.36574128839987     -0.93884676948465      1.48878505963496
  H          -2.38408051122416     -2.14808636538843      0.13082230458931
  O           0.86397837747918      1.57149815897059     -2.08537453412123
  O          -0.42404576262537     -0.14710843276041     -2.18560180263528
  C           2.36094159258892     -0.78330828234524     -0.08984546052567
  H           1.97692268056902      0.14093075095588      1.80574671694894
  H           1.83145429417069      1.22829870321198      0.44099687117661
  H           2.24047545056247     -1.79505177216468      0.28924003291563
  H           3.41975804808190     -0.53806770777031     -0.07634340009237
  H           2.02801400963792     -0.75453204897739     -1.12312972985176
