22
Coordinates from ORCA-job NEB_product E -39.810121209420
  C           2.85328632511817     -0.59980884822923      1.33746954854258
  C           1.36785403230866     -0.36229921942674      1.42689883987855
  N           3.17818065061876     -1.02116128121525     -0.05208923953419
  H           3.37971469576772      0.34331521495294      1.52902676804103
  F           1.09856403812504      0.34703691105690      2.55860843825876
  C           3.25522284092921     -1.64824143930348      2.41796396500273
  C           2.71363504060224     -3.01488402828432      2.09678624421211
  C           1.54943769328026     -3.44907736717904      2.54214225969729
  O           0.49687328827776     -0.68911338354215      0.71163942243852
  C           4.77095466388232     -1.65948278372695      2.67116517780198
  H           2.77728153579844     -1.30482480365533      3.34393860475891
  H           3.33071749050310     -3.64886384427847      1.47963993136614
  H           0.90738909108680     -2.84135839740223      3.16025365008327
  H           1.18493252710231     -4.43181105370446      2.30254566191842
  O           3.82789488344381     -0.23652418912093     -0.69905813623234
  O           2.75778810481011     -2.07808980863548     -0.43213230166983
  C           5.64490917979921     -1.92666010056452      1.45040611920760
  H           4.95535273561832     -2.43401498077807      3.41880794786080
  H           5.06133574943655     -0.70338081421602      3.11303241211872
  H           5.31528329170927     -2.80821600436604      0.90676406795802
  H           6.66887784257164     -2.09927118973539      1.77254740470661
  H           5.65671429921030     -1.07926858864573      0.77004321358433
