23
Coordinates from ORCA-job NEB E -28.249211188520
  C          -0.00518046377491     -1.21537011553205     -0.35676660749615
  C          -1.36860972649577     -1.24605306658845     -0.07688531697648
  H           0.67262693902541     -1.52519568629463      0.42312202820289
  H           0.31102175754593     -1.49835233603750     -1.35148977539422
  C          -2.38461992927999     -1.20977506187938     -1.18640831435778
  C           0.32029079577633      0.67905572873866     -0.21324269821921
  C          -0.13170118966578      0.95285216319985      1.07767997940532
  C          -1.50645604169867      0.69188280405008      1.36596230475189
  O          -1.75639629333837     -0.87127525103458      1.12069655276159
  C           1.76728055623260      0.88921018448089     -0.60848916197298
  H          -0.35011918884754      0.97377370798724     -1.01871551587083
  H           0.56365031125909      0.88012488383196      1.89977214863288
  H          -2.22685704817992      1.13344360792358      0.67809728595196
  H          -1.80882794190625      0.81537493858081      2.39952729393525
  H          -2.61214049722865     -0.17219910163327     -1.44816830097917
  H          -3.30990741510130     -1.67584282174887     -0.85562226168685
  H          -2.01652502119729     -1.72062597408985     -2.07083513799455
  C           2.79798755562358      0.53029300345615      0.45508681208827
  H           1.88320062706027      1.94634368280801     -0.86867404328160
  H           1.97139763968091      0.31490681732702     -1.51510589712976
  H           2.71630250488334      1.18942032005449      1.31499141809625
  H           3.80021023395790      0.63413023748383      0.04498357175317
  H           2.67337183566910     -0.49612266508400      0.79048363578011
