23
Coordinates from ORCA-job NEB_reactant E -28.282847182520
  C           2.36639628620527      0.36308447670069     -0.77811467010079
  C           1.46347221077131      1.28279968733770     -1.09161184951606
  H           3.10125398153786      0.49352473078289     -0.00565912900472
  H           2.39933164677938     -0.56544958204881     -1.31609841619422
  C           0.45636994937105      1.11397832623274     -2.19139115527874
  C           3.99287486891079      3.36289741200186     -0.90178516454667
  C           3.52550051986619      3.15024452809782      0.31584339758348
  C           2.09471794440836      2.80943243633872      0.63071322439180
  O           1.29374508384109      2.49418501663544     -0.48379043474075
  C           5.39985283264652      3.71046858841758     -1.27612893026946
  H           3.31748732084713      3.27917973163383     -1.74400127089405
  H           4.15417613793166      3.22663129097347      1.19082045890254
  H           1.60800750710444      3.68226418618883      1.08418407328573
  H           2.06329555371348      1.98900887395057      1.36332020490009
  H           0.58173001119805      1.90473062888874     -2.92898094157618
  H          -0.55014496449045      1.19713866877092     -1.78553873428004
  H           0.57334636179172      0.14953982132856     -2.67416115557939
  C           6.36775112059435      3.83621289322370     -0.10732333114244
  H           5.37899391485791      4.65278470219169     -1.83335900619169
  H           5.76437497313767      2.94459573104920     -1.96872234928965
  H           6.04388630223052      4.61634586875238      0.57753549264578
  H           7.36017823539510      4.09153672974939     -0.47227314796945
  H           6.43540220135060      2.89786525280209      0.43802283486487
