23
Coordinates from ORCA-job NEB E -38.947476892080
  C           0.51650139588740      0.96813320213781     -0.75398277408262
  C          -0.58465937027581      1.74815116801595     -1.17068527502587
  C           1.22709043550628      0.24976805149619     -1.86013831054101
  H           1.19982425059618      1.42671886929494     -0.04562420269916
  H          -1.06691311107388      1.48679095920480     -2.12176589708440
  C          -0.35697512190769     -0.20071416712191      0.54179525500123
  C          -1.03462812195151      0.72680082072694      1.35022459143859
  C          -2.05680956349416      1.52240246294859      0.81629629044030
  O          -1.22473341314355      2.47735238931097     -0.34880966104487
  C           0.68040863726797     -1.07209710002396      1.22812554301348
  H          -0.96869503117181     -0.74348684314669     -0.17320404312318
  H          -0.52264624643848      1.08746349045298      2.23237292698810
  H          -2.48686677116177      2.28923425985177      1.44460347533915
  H          -2.77029587057422      1.05956780154674      0.14459720652885
  Br          1.78639495305165      1.56566763240754     -3.25636087609754
  Br          2.86778658929647     -0.63925185405834     -1.32224986302422
  Br          0.09210548286529     -1.05438785992092     -2.75720466203796
  C           0.64218350285888     -2.51786697046135      0.74677203721963
  H           0.47304109248296     -1.05681140905468      2.30055682835772
  H           1.68678116097880     -0.66927799067040      1.10958698310921
  H          -0.34237984426538     -2.94737210041855      0.91656129859794
  H           1.37422280860419     -3.10862648081163      1.29104041601153
  H           0.86926215606220     -2.59815833170679     -0.31250728728492
