23
Coordinates from ORCA-job NEB_reactant E -38.992908582540
  C           1.38764505679335     -0.44072685173029      0.24309663258067
  C           0.63679010458665     -0.92942044367455      1.23271579772414
  C           2.14859539890366     -1.24700891998904     -0.71296728986713
  H           1.44960992779802      0.62804555944089      0.09073512016652
  H           0.55422471327139     -1.99805577084351      1.40940557677045
  C           0.03307330956233     -3.00958265637913      3.94464851828670
  C           0.12749959592313     -1.68936965688021      3.92447650611892
  C          -0.76076900325021     -0.80177864409183      3.10704564848151
  O          -0.03425766016346     -0.13594063094265      2.06845236286201
  C           0.95369307181540     -3.92082659338612      4.68537660215820
  H          -0.75143506314638     -3.50400088372111      3.38345506527046
  H           0.91195409865967     -1.18148577722726      4.46878381202361
  H          -1.17404045284458      0.01140688138696      3.70865297138740
  H          -1.58276999873899     -1.37824859044366      2.66446941425306
  Br          4.02052648495487     -0.62344376623252     -0.80810283348322
  Br          2.20142568334805     -3.14362050036342     -0.31342310101621
  Br          1.38978329512192     -1.06163958523920     -2.54898892386898
  C           1.65709321298562     -4.87474261521027      3.71832016985858
  H           0.37401721947924     -4.50629398932698      5.40405770767243
  H           1.69326158255564     -3.33794041949720      5.23629354501296
  H           0.93114950557257     -5.47461753617974      3.17452871022342
  H           2.31798513171111     -5.54381104779653      4.26264567559168
  H           2.24904478510101     -4.31879756167263      2.99472231179279
