20
Coordinates from ORCA-job NEB E -40.626011509750
  C           0.35697125435112      0.84406985626721      0.06156647448105
  C          -0.94120800207642      0.92963953703065      0.80587683010332
  O           0.14037917883277      1.23974403614255     -1.25081390202978
  H           1.11941932974403      1.46429892469016      0.55279286005325
  N          -1.67803187731170      2.09656018755997      0.75730198905927
  C           0.85472471832988     -0.67010074720630      0.20078402850215
  C          -0.23316200777085     -1.49721099484157     -0.31073740035378
  C          -1.55065315940563     -1.27316538041130      0.29969120030493
  O          -1.52635700698264     -0.20041020967565      1.25542985303854
  C           2.20809176374880     -0.89985275276161     -0.46162842672975
  H           0.96429140894416     -0.79949466458566      1.28482659538832
  H          -0.16376062127847     -1.96459025836238     -1.27797557165542
  H          -1.89211716184821     -2.13231880643209      0.89055408899154
  H          -2.31421416150332     -1.08588577563536     -0.47638140231441
  H           0.94057036888463      1.58519662030535     -1.66097939350553
  O          -2.85487985711894      2.06469432391482      1.10564428777226
  O          -1.07407750697948      3.12026798124887      0.42505902997867
  F           2.15100810755271     -0.64827299775799     -1.80723013422796
  H           2.52318698737823     -1.94200332405706     -0.34731788983317
  H           2.96981824450933     -0.23116555543260     -0.04646311702352
