20
Coordinates from ORCA-job NEB_reactant E -40.688399483680
  C           1.59987690225171     -0.10023902545213      0.01684634072449
  C           1.45697936565392     -0.54270189237102      1.27984468865654
  O           1.54936563239750     -0.88509608622817     -1.08194991080715
  H           1.77175716299890      0.96080138765396     -0.11127966943640
  N           1.52232857880033      0.44197937900912      2.33808433735721
  C           3.93696648333446     -3.75767250474237      1.56826526391393
  C           3.14769077451153     -2.95694236629772      0.87279331763195
  C           1.65836089954373     -2.91140142935213      1.03239233053280
  O           1.23898184412918     -1.77307340336868      1.78277512728626
  C           5.42462891079215     -3.79749245873111      1.43856815320628
  H           3.53835329869991     -4.45548123334357      2.29096399450194
  H           3.57308400921800     -2.26181686844566      0.16292133047607
  H           1.30459360130556     -3.75694855642266      1.62528267093286
  H           1.17103860456567     -2.91457920529549      0.05170523483454
  H           1.75826464259759     -0.37615402122066     -1.87319885274511
  O           1.50011677511406      0.03624832258118      3.47473375531839
  O           1.59503032225419      1.61310928541917      2.01541461182792
  F           5.88377338315045     -2.92106605104667      0.48860735807258
  H           5.76594216384092     -4.79651847800671      1.13946381667106
  H           5.90466664484024     -3.52055479433867      2.38556610104383
