19
Coordinates from ORCA-job NEB_product E -29.428425010650
  C           2.96828177613224      0.59430833903978      1.86042037542678
  C           1.50818186396907      0.45185249789299      1.45304673393469
  Cl          4.01703184037165      0.15907602560367      0.48149594715475
  H           3.21503275949610      1.62398280384641      2.12594155739711
  C           0.60631777992932      1.47695508502985      2.08743886264198
  C           3.26971076478955     -0.31515186875609      3.07014708447573
  C           3.06854404400049     -1.76606913262259      2.72213372230442
  C           2.16596897441000     -2.54009935975289      3.29298762768766
  O           1.12097895483703     -0.40542615045932      0.70844620085922
  N           4.60897407820830     -0.00157270182916      3.54529550858652
  H           2.57070296598171     -0.03514289945852      3.87030220444475
  H           3.74242324989682     -2.15721799793437      1.97283567874577
  H           1.48494543358811     -2.16436664724142      4.03998739098547
  H           2.06237706229635     -3.57918402393654      3.03304175635873
  H           0.84834244324592      1.60697739674728      3.13885981627073
  H          -0.43247073648110      1.18030175061959      1.97160622572041
  H           0.75853992304565      2.43078551369920      1.58444701322084
  H           5.28194746964536     -0.17077335781974      2.80341251766262
  H           4.84886935263742     -0.59983527266812      4.32805377612184
