73
Coordinates from ORCA-job A2S E -120.277647823540
  Ru         -0.57477200213482      2.22832135122140      0.35868553517467
  H          -1.26342543097474      0.86549191962330      0.54797819277615
  N           0.99126896294253      1.20169830603912     -0.57606271298643
  C           0.94263328925662      0.96299086330864     -1.89869623346076
  C           2.13694087695039      0.93579111490898      0.07573234874458
  C           2.07418328356579      0.59602694280034     -2.61680730778598
  C           3.30084678296999      0.58307349285197     -0.58752585838047
  C           3.28464375801719      0.44705847807291     -1.96569549288240
  H           1.99787949251688      0.43536377319003     -3.68124790933923
  H           4.20470224048770      0.41890779395076     -0.02320626554842
  H           4.18301723123550      0.20207408744652     -2.50977782941531
  P          -1.41385585307352      2.35579435022008     -1.78818228033737
  C          -3.18247126062473      1.82353917023331     -2.22230860516715
  C          -0.93679276256893      3.88475725392474     -2.82471961349567
  P           0.73885222644380      2.05528132150036      2.08839407628167
  C           1.72105634063508      3.58449359714039      2.65330467297263
  C           0.36950017594805      1.29407934921292      3.79184333382957
  C          -0.38990235567480      1.03445997799331     -2.56898433929714
  H          -0.90619053307006      0.09017158648241     -2.34303217415025
  H          -0.30112970219067      1.13544591641822     -3.65285511918464
  C           2.10707442757491      0.95161934856357      1.57717105390977
  H           1.83673697564199     -0.06043854041539      1.91609407821698
  H           3.07108303171560      1.22412757491715      2.01918426553854
  C          -1.96104710583008      3.13643086853316      1.17669952528561
  O          -2.82566561842219      3.69169613107886      1.69674965277402
  H           0.16579572736367      3.53318410269945      0.04760796228016
  C          -3.34858343725808      1.22847132542496     -3.62087149344196
  C          -3.57737054611297      0.74550721636971     -1.21206858291790
  C          -4.11013807584731      3.02115494498510     -2.01088501721892
  H          -2.77771076162586      0.30859370372498     -3.72149723625775
  H          -4.39978463456134      0.98160214291780     -3.76726079235232
  H          -3.05933428846344      1.91114894815958     -4.41087378388090
  H          -3.54324281641751      1.13857623605740     -0.19749116214541
  H          -4.59217052295013      0.40732900236110     -1.41902999789739
  H          -2.91406320544731     -0.11307996682187     -1.27625561649910
  H          -3.87434984139595      3.50874296730144     -1.06318273801861
  H          -4.03221257113144      3.74794075865217     -2.81528198145482
  H          -5.14503735547011      2.68319341099044     -1.96868894849078
  C           0.59413815622073      3.92705360111821     -2.88034173544062
  C          -1.45113071427689      3.89673892000798     -4.26323179545244
  C          -1.43529040444786      5.12751170991482     -2.08568651067155
  H           0.99573819666951      3.16885076631582     -3.54990892188687
  H           0.91857857013202      4.90030681552772     -3.24640655065478
  H           1.02657184336062      3.78846647436452     -1.89073372939764
  H          -2.52998355247258      4.00978613713514     -4.31138161400750
  H          -1.01091064479738      4.74957703952786     -4.78021240702148
  H          -1.15788510751664      2.99884548044689     -4.80353958697310
  H          -2.51664612918148      5.21764353525637     -2.13006281333112
  H          -1.13667208497506      5.08494784207960     -1.03883970641652
  H          -1.00360126225335      6.02401118838750     -2.52885964971157
  Cl         -0.76806515795524     -0.00395181629987      3.43845258498857
  Cl          1.73001725622389      0.59254092862640      4.68239576445217
  Cl         -0.44531924593544      2.52441028376324      4.75943251223760
  Cl          0.54317043708704      4.89099605997488      2.80715461846486
  Cl          2.70225456633911      3.48717186789287      4.11674335554234
  Cl          2.79780408002990      3.92918082140468      1.28851692899642
  C          -1.05952279532899     -2.13660884188832     -0.41286992473465
  O          -1.26631158416956     -1.81370171359166     -1.56695307834748
  C           0.32477990651885     -2.32165391095546      0.08820247848515
  C           0.63002123727459     -2.45864642240481      1.44112910701895
  C           1.94459853833555     -2.61654279560681      1.84306742540181
  C           2.96451403951714     -2.66183997633335      0.90494679221536
  C           2.66867017704762     -2.53881929090692     -0.44307191326257
  C           1.35996082462445     -2.36225221693623     -0.84632057744986
  C          -2.18129991846736     -2.36100874910237      0.55930643202987
  H          -0.14853847928930     -2.42523212603403      2.18558132938469
  H           2.17418374938676     -2.71099965148591      2.89442996205678
  H           3.98684696651450     -2.79722514009687      1.22554235256494
  H           3.45820970515377     -2.58343488817488     -1.17856050479734
  H           1.11168760652888     -2.26477689441955     -1.89323663594178
  H          -3.13057982640169     -2.38136252279956      0.02979512069124
  H          -2.19642192240256     -1.53151389644581      1.26562245418442
  H          -2.04453116911319     -3.28728944030131      1.11064283100649
