23
Coordinates from ORCA-job NEB_product E -44.460982733520
  C           2.53247594647588     -0.32068958141110      1.49352356046632
  C           1.91246710116409      0.95011567147400      2.08253548903425
  Cl          1.17372220874430     -1.24864195357412      0.78495367858858
  H           3.18422300686427     -0.05267858827386      0.65797507586732
  C           1.34893899191565      1.90072131249306      1.06050682598564
  C           3.29541293850389     -1.13560952282821      2.54980254105350
  C           2.40826776898306     -2.12849408411146      3.25742106195879
  C           1.84467431387916     -1.88122726391457      4.42321888259377
  O           1.93024630189000      1.17511766983764      3.26226003351703
  C           4.50910717784007     -1.83705960701426      1.94738761225261
  H           3.66424738467790     -0.41479170499194      3.29029046935630
  H           2.24189985171551     -3.06099122423313      2.73801766404152
  H           1.99470144137965     -0.94726982526665      4.93807304759022
  H           1.19734990700548     -2.59868687096426      4.89639172047398
  C           2.45651299182007      2.87424092933912      0.64029648824938
  H           0.53379610902626      2.46262525553225      1.51775369847905
  H           0.97792519085580      1.36010209927564      0.19124094230705
  H           2.83785246880490      3.40808852824822      1.50709329536121
  H           2.05929766650866      3.59748273331852     -0.06664450031750
  H           3.28144279745607      2.34631645559919      0.16760161565455
  Cl          5.65917657088304     -0.64091872678378      1.29154319340169
  Cl          5.34828873779593     -2.76720245404903      3.21034863559471
  Cl          4.05427312581037     -2.94214924770129      0.63600896849003
