22
Coordinates from ORCA-job NEB E -54.650365396260
  C           0.20875717039126      1.51119126443517     -0.03042618449278
  C           0.96259544176599      0.43038631503740     -0.63057969765116
  C           0.22657154965037      2.80585749409268     -0.40633227711942
  H          -0.55914129526994      1.21530998082576      0.68522667898591
  C           2.36457288625612      0.25131169293923     -0.44310486676726
  C          -2.11576009766462     -1.44550626225769      1.18256565558073
  C          -1.17269087443078     -1.53014525250398      0.25408680873336
  C          -1.04113410629964     -0.77243079538508     -1.01523047344181
  O           0.34225824933451     -0.57893709979592     -1.24805249476666
  N          -1.99177706487137     -2.23644984452332      2.39934899108387
  H          -2.98286290874518     -0.79587197510217      1.17984045380766
  H          -0.38096279654812     -2.23219217237221      0.42829861961007
  H          -1.57308833457349      0.18032374468196     -0.99732160177800
  H          -1.40873409225947     -1.36541874732578     -1.85279378451507
  Br         -1.06828126385317      3.97686764714704      0.28187784934319
  Br          4.00683742735298      1.51313663648467     -2.83430752562175
  Br          1.44582341248647      3.56149678462491     -1.63148892427388
  F           2.76543807984384      0.69900766929051      0.74265710596616
  F           2.76001668529583     -1.01607082047718     -0.60067091369947
  H           3.07117686908249      0.84125803723597     -1.21273815682009
  O          -1.03323042805039     -2.95986413700186      2.49754152747317
  O          -2.82638450889376     -2.05326016005011      3.25160321036329
