22
Coordinates from ORCA-job NEB_product E -54.706078851670
  C           1.42058623816331     -1.64036979778843      1.60593238987338
  C           2.49142872157855     -2.46702142385501      0.87111485622776
  C           1.52178627319213     -0.14110377116981      1.34714299962593
  H           1.63704432545413     -1.79702444694403      2.67763059057068
  C           2.45906865768704     -2.47830707788620     -0.67968608008991
  C           0.02994303070802     -2.23054268877915      1.33845124290601
  C           0.10267593460232     -3.71132548285183      1.06445388197628
  C          -0.46789452726321     -4.28543590339701      0.02171129837168
  O           3.30128382919813     -3.10590623754760      1.46725176502702
  N          -0.83742654865659     -2.11808140993045      2.57455710917497
  H          -0.51245418833536     -1.71632532106954      0.53814535213894
  H           0.62824192264740     -4.28878571821481      1.81247381398905
  H          -1.01486859562062     -3.72219659354185     -0.71684149448321
  H          -0.40845676852129     -5.34793427647317     -0.13160439293456
  Br          0.40845576303013      0.83071864638694      2.64922942681294
  Br          3.38150359518792      0.44004764245434      1.56296627663958
  Br          0.90480176983858      0.40235848981545     -0.42710629343150
  F           3.27288276759356     -1.50465840037761     -1.14489229502067
  F           2.94640670020534     -3.65288356080129     -1.11422899147674
  H           1.46065036810565     -2.33739464328088     -1.11960507768828
  O          -2.00337631796676     -1.93086592841321      2.37442152472614
  O          -0.29848295082836     -2.28526209633482      3.63468209706452
