22
Coordinates from ORCA-job NEB_reactant E -54.711338149210
  C           1.33888228183843     -0.51516756005564     -0.21244336916431
  C           1.95339076321619     -1.62596991912548      0.21996440517740
  C           1.95272591862489      0.59854146948809     -0.96656430584688
  H           0.28440548548829     -0.39071854968280     -0.01503583637637
  C           3.43413259252906     -1.93763508973140      0.03843429293624
  C          -1.31555693306612     -3.97318948814888      2.81669083764932
  C          -0.34012888122227     -3.84245123687140      1.92882101834389
  C           0.00293857282509     -2.57439081295547      1.22316391768993
  O           1.37873933919442     -2.62301231635513      0.90098785547811
  N          -1.59617427051010     -5.24740852376782      3.42679154415087
  H          -1.96741493699452     -3.18322109625937      3.15811577476642
  H           0.26510441734513     -4.70324398336814      1.66983463077134
  H          -0.21758916877985     -1.69995748748652      1.84920156733823
  H          -0.59524759803301     -2.50823952439711      0.30054846001318
  Br          0.63822529139210      2.00643982795865     -1.26000972126275
  Br          3.48799600745759      1.42157137420162     -0.02801000390355
  Br          2.58360794738531      0.02077450801800     -2.76517872150317
  F           4.09163077053840     -1.68628105540782      1.19264543598569
  F           3.59203277824143     -3.24795437958002     -0.22598853499055
  H           3.92444754876030     -1.37151013539290     -0.76545950269519
  O          -0.94626535716738     -6.20434803124753      3.07692165259052
  O          -2.47738256906338     -5.25912798983294      4.25546860285160
