22
Coordinates from ORCA-job NEB_product E -42.132323562770
  C           2.39900988758490     -0.17948031781057     -1.54914725016632
  C           1.71195834550407     -1.45815701236213     -1.06260559082839
  O           1.79489808881634      0.95225313382060     -0.97503857261139
  H           3.45735044187730     -0.26158441298283     -1.24864046535120
  C           1.05488061327675     -1.27552462811845      0.21977458865094
  C           2.33795318346450     -0.14020785909326     -3.09738320541924
  C           0.96257193411708      0.24572120372120     -3.56188728020637
  C           0.18445415517176     -0.55236367224854     -4.26644853630749
  O           1.71968195585856     -2.50623906964346     -1.65180890009112
  C           3.38175066563114      0.82823166625452     -3.65335623539820
  H           2.59917112244201     -1.13930380841008     -3.46278028714232
  H           0.63977061226848      1.22893511833855     -3.25237676078402
  H           0.49822806737991     -1.54034844856748     -4.56167547491255
  H          -0.80236392086099     -0.25132708391602     -4.57161085714302
  C           2.57592895933057      1.64760727748102     -0.02817565594583
  H           3.51185597328503      2.00373832259548     -0.46991460800696
  H           2.79381987562243      1.02577313479078      0.84695748546540
  H           1.97473492103691      2.50041082423694      0.27781644846692
  N           0.57890303168172     -1.14389509027990      1.25176550901265
  F           3.23415906527586      2.08020731323193     -3.16939351936100
  F           4.63233770508227      0.43689852746277     -3.29135149407106
  H           3.35254531615338      0.88585488149892     -4.75211933784943
