16
Coordinates from ORCA-job P E -21.238266674990
  C          -1.80238327467372      0.53912482022031     -1.96011137073774
  C          -0.03389362908029     -1.60676644498234     -0.90069052044797
  C          -1.17475113675422     -1.86181972724950     -1.84188359376776
  C          -1.95805464626507     -0.90737324588967     -2.31456757795620
  C          -0.44180983579321      0.81755501983754     -1.31808741291835
  C          -0.17731660471205     -0.23769844472182     -0.26309875030604
  H          -1.31858527343400     -2.89240745788057     -2.13351936504279
  H          -2.77061331109613     -1.14670690292673     -2.98592145383633
  H          -2.60485572116969      0.82326748166353     -1.27033862324977
  H          -0.00440760078535     -2.38641747316958     -0.13479083526951
  H          -1.91950610007574      1.15304103841739     -2.85628867214635
  H           0.90584335663684     -1.66934785239316     -1.46070727010539
  H          -0.43565350696970      1.81900898140913     -0.88337236936997
  H          -0.98226537742150     -0.24361422873531      0.47274801439778
  H           0.33939265930248      0.77388424098989     -2.08057905301702
  I           1.61409000229135      0.24806019541087      0.88593885377342
