16
Coordinates from ORCA-job R E -21.133220329760
  C          -1.15914850305317      0.02200134351970     -3.17771066789383
  C          -0.13790806907452     -2.44415824807331     -1.75757080841643
  C          -1.34221264908864     -1.90079883117171     -1.62068397873641
  C          -1.86385042258423     -0.77974532038513     -2.38711175826441
  C          -0.99021159441940      1.34991452000560      0.23814593114451
  C          -0.04273851310031      0.44687729484642      0.35724154778669
  H          -2.03043068022830     -2.31667937488761     -0.89428097445547
  H          -2.92697231884510     -0.60447287126014     -2.27321562914257
  H          -1.62004001014247      0.83528399607112     -3.71188654763732
  H           0.17465412540439     -3.27658352876519     -1.14986060063681
  H          -0.09828400756359     -0.09487825817278     -3.31835830997977
  H           0.57625929488026     -2.08708323339646     -2.47846612906081
  H          -1.93389642968320      1.22294192006654      0.74323311093395
  H          -0.13292030822239     -0.45038465752376      0.94452504516801
  H          -0.87869908064061      2.23695298193586     -0.36065059925509
  I           1.82916916636128      0.61164226719085     -0.58602963155424
