23
Coordinates from ORCA-job NEB_reactant E -48.847953603890
  C           1.88417545796757      0.01933034673254     -0.01257534427719
  C           1.51041773114473     -1.09122304550036      0.61868681253526
  C           1.29631994650529      0.53958035378694     -1.28162476538525
  H           2.67543473418464      0.60984532596850      0.42051203725997
  C           2.06616493730964     -1.51216077080428      1.95897206867102
  C           2.15294331745941     -4.58204010641982     -1.38457153269263
  C           1.99067738079338     -3.28009426168370     -1.22607257408613
  C           0.66128346124119     -2.61868507405903     -1.03645304217259
  O           0.53353677873695     -1.97192362153464      0.22696583386855
  C           3.48978499027188     -5.23176588578284     -1.57265501012277
  H           1.32422102991945     -5.27413968557766     -1.40176917675811
  H           2.84926479821348     -2.62172947052141     -1.21404139735401
  H          -0.14506425113918     -3.35516259687513     -1.03600718870984
  H           0.49806102124223     -1.90808391269348     -1.85628375692207
  H           0.25169256992881      0.25393702406486     -1.37679647596874
  H           1.84835671470998      0.16588749244859     -2.14534451112361
  H           1.36337056397210      1.62449741559767     -1.29178731121950
  Cl          2.83536926616660     -3.12186794136669      1.81712011924706
  Cl          3.25717161519204     -0.40076073199300      2.63030441819202
  Cl          0.71528059751002     -1.65181130870676      3.11428413211061
  F           3.46819363736050     -6.06984517053254     -2.64288524392935
  F           4.46971815468946     -4.33134162722620     -1.81677992989777
  H           3.79582554661982     -5.83044274732157     -0.69669816126493
