23
Coordinates from ORCA-job NEB_product E -48.861649342120
  C           2.49429482161492     -1.62407373793409     -0.39850752415902
  C           1.45971048237888     -1.30455193032522      0.65453491844826
  C           2.43978843604358     -0.52892638867918     -1.46636919922251
  H           3.49073129139671     -1.65769533143001      0.04818377432554
  C           1.99457911321646     -1.27038927811276      2.10318046082072
  C           2.16027678116501     -3.04753845570572     -0.93264446869222
  C           0.94635747704973     -3.06251856445171     -1.81506607281611
  C          -0.22678188101508     -3.52638311017077     -1.43000780605010
  O           0.30746250343960     -1.07978533715137      0.43295028345887
  C           3.35569087193081     -3.65679268631869     -1.67113065089952
  H           1.99053294283084     -3.69553520327812     -0.06533689473296
  H           1.08691568096606     -2.65523408171710     -2.80580317209575
  H          -0.38466720568471     -3.93173957497076     -0.44436857747938
  H          -1.08242564221689     -3.50810493902955     -2.08155951671147
  H           1.42201241444516     -0.40651582003882     -1.82660065341856
  H           3.09213238922668     -0.76883696749150     -2.29937957816519
  H           2.76896904649331      0.41230393015510     -1.03213347023545
  Cl          2.81657172170423     -2.79765627859960      2.48761560733742
  Cl          3.16193725485211      0.06945769200180      2.19888065012511
  Cl          0.68648594787478     -0.99851105649576      3.25700540650133
  F           3.69844163166907     -2.96065782245463     -2.77944980026867
  F           4.45736601197304     -3.67059483703327     -0.88321237960689
  H           3.15391790864571     -4.69362022076829     -1.98388133646345
