21
Coordinates from ORCA-job NEB_product E -43.941472605300
  C           2.58503298278334     -1.05383091669941     -0.07743022806660
  C           1.26367756943271     -1.45195878967551      0.53468886700488
  C           2.37768084395094     -0.03882051796979     -1.18946865537779
  H           3.19339845593079     -0.56703541198845      0.69768719872267
  Cl          1.47537876823837     -2.20867656453291      2.11020001733190
  C           3.40332660471831     -2.32489088688202     -0.46355449589834
  C           2.95556889967098     -2.96533309247770     -1.74924944931073
  C           2.09237902029329     -3.96233893603763     -1.79888490860841
  O           0.18196591269845     -1.31036533853677      0.07784452622980
  O           4.74893453296482     -1.90635703488078     -0.50063056191939
  H           3.26871625784809     -3.04562152044385      0.36211576013993
  H           3.41489877724399     -2.57147739183220     -2.64581999008627
  H           1.64005576837252     -4.36922159629574     -0.90881138518772
  H           1.78798751746256     -4.39684954640541     -2.73417549973302
  Br          1.63217209783574      1.58906724017150     -0.38775179060580
  Br          4.04803583624387      0.45428283701434     -2.02724243468353
  Br          1.15791410390721     -0.58634678728295     -2.58861760633007
  C           5.67499341096057     -2.96473608463774     -0.56224481138365
  H           5.58561234726045     -3.61062460837141      0.31903749271691
  H           6.65727490858387     -2.49921185043334     -0.58077466769113
  H           5.53709538359915     -3.57015320180223     -1.46321737726364
