21
Coordinates from ORCA-job NEB_reactant E -43.945024066360
  C           1.86822031892807      0.26774287684374      0.17279743144726
  C           1.74865244510606     -1.06988367527739      0.20479170170182
  C           1.76403305645879      0.97871016589757     -1.11098052467654
  H           2.02740331698573      0.83570046431820      1.07264566279064
  Cl          1.91550741756088     -1.91347365379263      1.70208875709736
  C           3.84023111168168     -4.09797946100208     -0.14142201549826
  C           3.18565134315864     -3.42164589981856     -1.08086451466811
  C           1.71874330981800     -3.14977838195424     -1.00145163869438
  O           1.46765572379221     -1.73991144749564     -0.89867389527275
  O           5.14936624688805     -4.38938418586073     -0.08288402993787
  H           3.32826849307031     -4.52588204861207      0.71175017061209
  H           3.68476829847069     -2.98223649352573     -1.93004653971346
  H           1.25624991375658     -3.67324226298816     -0.16014753499968
  H           1.21304517379171     -3.42390989710905     -1.93051308562549
  Br         -0.01483165290471      0.76018160333794     -1.94291607172780
  Br          2.09537710335057      2.87523930100811     -0.89608508294932
  Br          3.06210072200237      0.29545704994263     -2.42216346697556
  C           5.97847253553537     -3.90655004569512     -1.11844260771641
  H           6.98623865924855     -4.23461724936240     -0.87213894197332
  H           5.94974658864721     -2.81446428735642     -1.17196911937436
  H           5.68199987465324     -4.32247247149796     -2.08547465384586
