18
Coordinates from ORCA-job NEB_product E -38.053527984950
  C           1.83263028114420     -1.02386065314584      1.71932657615979
  C           1.33756642792095      0.34189789048548      1.36797910801632
  C           1.53301617483923     -1.96468658608528      0.54525878388581
  H           2.91411649365207     -1.01709340917484      1.89554289250896
  Br          2.14122100908119      1.72562481457633      2.48392211920188
  C           1.17725676406984     -1.50212335435275      3.05087170758381
  C          -0.25543548888068     -1.90407263120668      2.83144246286342
  C          -1.27934826268933     -1.09739360685889      3.03629711071102
  O           0.52925483148859      0.64746688656670      0.56313029637142
  O           1.98144219019118     -2.54980839528662      3.52654630610865
  H           1.21830754751994     -0.65518961766479      3.75854186822219
  H          -0.39421540182675     -2.92031880088422      2.48772695831488
  H          -1.14683141948692     -0.08565072811694      3.38403307285767
  H          -2.29269341490885     -1.41421536519234      2.86383466454254
  F           2.35577200400975     -1.66367054888679     -0.48697267527022
  F           1.77042289016404     -3.25193603906128      0.85562268512769
  H           0.49546855733807     -1.87954031302606      0.18623286899702
  H           1.48794881637346     -3.07362954268519      4.16586319379715
