18
Coordinates from ORCA-job NEB_reactant E -38.047532373780
  C           1.73026519309046     -0.05428086412128     -0.05380961014034
  C           1.04662659801325      0.07016990068243      1.08866174674771
  C           2.22946099096719     -1.38607570512358     -0.51645682150539
  H           1.95243614471917      0.80419291360400     -0.65973763418019
  Br          0.42733061800282      1.81975606416746      1.57215238293108
  C           0.09482064393087     -2.44491352905178      4.81811384336626
  C          -0.29117566822535     -2.17617117150269      3.57708035957030
  C          -0.16053432521437     -0.82668235600653      2.95681595337209
  O           0.80317501363269     -0.92776662492349      1.90668953465657
  O           0.01517978150478     -3.63806349195001      5.43033984543128
  H           0.49658528181048     -1.68933157348510      5.47905110974312
  H          -0.67739006660880     -2.95401274508571      2.93354186827717
  H           0.17673423812516     -0.09164167496865      3.69728516145800
  H          -1.11916010545549     -0.49837892619808      2.53324291808781
  F           3.16533934739831     -1.90092983329238      0.32638755156445
  F           1.23395229874443     -2.31137779496220     -0.56066889622099
  H           2.68080999637769     -1.33647135476154     -1.51854730968604
  H          -0.32085598081327     -4.30742123302086      4.81935799652712
