23
Coordinates from ORCA-job NEB E -45.142885366350
  C           0.54159197607436     -0.85875524851220     -0.06590336341152
  C          -0.55845068075006     -0.99272350563401     -0.93279666405185
  C           0.48824380279996     -1.54273727499547      1.28993459672160
  H           1.52870500856181     -1.00253900653163     -0.49701131926136
  C          -0.37051436000854     -0.89887490658063     -2.41874372320102
  C           0.40946329804608      1.03727570712792      0.22809825322375
  C          -0.88607015969142      1.20902902245612      0.72747576268050
  C          -1.97203597970022      0.78404913937177     -0.09901739274019
  O          -1.74894817427017     -0.75747443057434     -0.44337394015658
  C           1.57421090403318      1.49824636973803      1.07731155703964
  H           0.59348600086803      1.30814522220039     -0.80948895080828
  H          -1.02831380554905      1.23131799511670      1.79626997429362
  H          -2.00017079731690      1.21006884085560     -1.10193912450935
  H          -2.94765595999584      0.78577886036961      0.37212762418714
  F           1.68071887295223     -1.45146703664933      1.92096365958277
  F          -0.43842822951713     -1.06610793424849      2.14300856840523
  H           0.28019476519589     -2.61988973712588      1.15756984007782
  H          -0.59823722457624      0.11543073581427     -2.75926682717663
  H          -1.06824551836826     -1.56861730040261     -2.91691375137323
  H           0.64393019723008     -1.15282408535690     -2.70751184163293
  F           1.44704774089665      1.17940332910147      2.37801062785030
  F           2.74057061193876      0.95720553823284      0.64250101231774
  H           1.68890771114678      2.59605970622677      1.01869542194280
