23
Coordinates from ORCA-job NEB_reactant E -45.179430992320
  C           1.91937118635529      0.17392953904514     -0.03326121781820
  C           1.55288914094229      1.07940075480672     -0.95336300829973
  C           1.77199039490326      0.15892860821182      1.45188221716290
  H           2.37459534607775     -0.72541048793300     -0.41418864174705
  C           1.78447087451745      0.78899009547390     -2.41166786853874
  C           2.29611386237269      4.73145011783883      1.46227130365787
  C           2.17951197211457      3.62693987972348      0.74556755241622
  C           0.86998955484196      3.00334205178492      0.36930677481238
  O           0.96100824466111      2.28256034719317     -0.84612368170009
  C           3.61195697951956      5.34028962785017      1.83798651222997
  H           1.44144983810850      5.26326776639710      1.85303917023544
  H           3.06235732037492      3.11523594547458      0.38752227339048
  H           0.12167144899750      3.77690199721017      0.17368341391288
  H           0.49401842588480      2.38223967005948      1.18622699911214
  F           2.43959636319643      1.16276454766742      2.09028434204426
  F           0.46935173209905      0.28854847670413      1.85607196222235
  H           2.13864481540997     -0.78616646298139      1.87753742600657
  H           2.62664073518745      1.37950618738510     -2.76873724243423
  H           0.90591608508064      1.08947007832018     -2.97695023368249
  H           1.98852233799830     -0.26168514126153     -2.58307890433429
  F           3.75500486203090      5.39132925718027      3.18961639336091
  F           4.66468829585206      4.63009142199913      1.37085613279658
  H           3.71994018347354      6.37527572185021      1.46661832519386
