25
Coordinates from ORCA-job NEB E -35.909442695360
  C          -0.16470425683089     -1.24471239300812     -0.34862346984163
  C          -1.46304676788064     -1.05976213135934     -0.83492529089017
  C          -0.01029297163683     -1.63490401500871      1.09890647694088
  H           0.53267443818489     -1.76241032167108     -0.99860984222600
  N          -1.69923278518858     -1.13404454152637     -2.20266067920023
  C           0.38968491031713      0.68399005734005     -0.44951915417508
  C          -0.57507122479287      1.29622500982653      0.34531605720627
  C          -1.93034127497770      1.20872240120287     -0.07268786577029
  O          -2.32723650802665     -0.40256258936696     -0.12497946859364
  C           1.86799445528603      0.75302648518608     -0.13210339580510
  H           0.20929979310254      0.72797897009395     -1.52132876106049
  H          -0.38470379539428      1.44561996710719      1.39653687971905
  H          -2.13016284720851      1.46436813449731     -1.11010653985880
  H          -2.68074947459561      1.59396990150056      0.60600352554235
  F           1.30364907533281     -1.90441345129796      1.39470962546585
  H          -0.56127959909786     -2.56099178808840      1.30888305475291
  H          -0.35088860318105     -0.85060814099985      1.77991350266521
  H          -2.66571841193767     -1.02751514195710     -2.46860548988909
  H          -1.19519812202107     -1.83717766492362     -2.71642374824158
  C           2.22248469763815      1.16570212363679      1.29119245420589
  H           2.30621504467992      1.48125237970594     -0.82266832930237
  H           2.33671299658799     -0.20842986464189     -0.34870705784283
  H           1.82517633995485      2.15208391074556      1.51772925253243
  H           3.30454377954779      1.20071333618406      1.39709808501534
  H           1.84019111213810      0.45387936682250      2.01566017865114
