25
Coordinates from ORCA-job NEB_product E -35.966661065460
  C           2.82558819283232      1.29582532017721     -0.18417520359087
  C           1.85862746226225      0.78048770478325     -1.24693657611836
  C           2.32505585633577      0.81090618392956      1.17441979341450
  H           3.80220560389971      0.83369423673282     -0.36043830061818
  N           2.34287922669143      0.85436538185280     -2.50890795759991
  C           2.95848930638180      2.84350879246199     -0.32605107634562
  C           2.44846364593253      3.58366581667573      0.87563465260698
  C           1.44355977860065      4.43778269406481      0.83303682668759
  O           0.75632383931970      0.34734860254607     -1.00369073080438
  C           4.41012562244429      3.25789163664665     -0.63743021894485
  H           2.34563170540057      3.15298508144071     -1.18189179878752
  H           2.96424398577141      3.39430762382172      1.80505941847443
  H           0.90714355240861      4.64270202725349     -0.07980051686284
  H           1.10953287585550      4.96818127844947      1.70852070698571
  F           3.29725374443068      0.95173309021899      2.13558925645515
  H           2.08169524626978     -0.25466339750827      1.12575350884693
  H           1.44830416185718      1.37174447021271      1.50626133362356
  H           1.74999673386561      0.57041850894059     -3.27107023790858
  H           3.24859058462415      1.23393581223386     -2.71663309996380
  C           5.39224292949848      3.02673554454070      0.50569395599858
  H           4.41041445455818      4.31927708665231     -0.89661248473789
  H           4.75031000480641      2.70795413878678     -1.52042702989927
  H           5.20789517456845      3.72168623791153      1.31975553244996
  H           6.41052174936567      3.18095444200259      0.15509833514384
  H           5.31500456201886      2.01667168517191      0.89864191149486
