25
Coordinates from ORCA-job NEB_reactant E -35.937754773470
  C           1.22621217668849     -0.25911273501222     -0.16386238672168
  C           1.60828671815463      0.79205934395239     -0.90210770539019
  C           0.45573810195199     -0.12559151772854      1.10217206816710
  H           1.51867921195772     -1.25098515426694     -0.46692003346270
  N           2.36654115293139      0.68483486317409     -2.05294448793427
  C           3.98952829079817      4.21093419091445     -0.21071348869803
  C           3.47499856895964      2.99806026902920     -0.09792899763291
  C           2.09282702564999      2.71072967727771      0.40373780300722
  O           1.27652882162664      2.08494101596003     -0.59182514843204
  C           5.37254974150208      4.50772540392358     -0.69437263600396
  H           3.40814979602567      5.07412676435089      0.08907091149909
  H           4.04394264812592      2.12723297710763     -0.39641025581405
  H           1.56664482515590      3.63521115556379      0.65185978751878
  H           2.14909281593541      2.07269938536842      1.29454052131031
  F           1.29069269460831     -0.14810572788492      2.21820267138454
  H          -0.23885626220618     -0.95966491256652      1.24084997634137
  H          -0.08017289126245      0.82736960318747      1.14625144183990
  H           2.30855500010261      1.48718713618404     -2.66119824133221
  H           2.34283878105235     -0.20516879558938     -2.52335312347918
  C           6.19573244582938      5.20195727902926      0.39059479712471
  H           5.31233277662251      5.16383602449337     -1.56767814465976
  H           5.86623771626626      3.58255519687451     -0.99665905170588
  H           5.72281836544314      6.13447973670931      0.69052350994343
  H           7.19581780458075      5.42386022678253      0.02574276565490
  H           6.27978367349969      4.56252859316584      1.26622744747551
