20
Coordinates from ORCA-job NEB E -51.486986135630
  C           1.09050975884731      0.46568198566608      0.31947544549177
  C           0.62338168632974      0.49019325343571      1.64801564522441
  C           1.00734253622216      1.77362376777417     -0.43823159512354
  H           2.06681187133612      0.00824657425578      0.17245456638700
  Br          1.46781611542897     -0.80753103068036      2.83808819304608
  C          -0.17437076959916     -0.89631045156445     -0.32276458531563
  C          -1.42613853265351     -0.38770717307533      0.04795452154132
  C          -1.69466264594139     -0.18924674787687      1.42670494815170
  O          -0.54037430741044      0.85990487936680      1.96215868973171
  C           0.03370831641527     -1.31691749550455     -1.74871344533722
  H           0.24894483415276     -1.66028520092491      0.33194056981728
  H          -2.02529153101600      0.13714313834645     -0.67981874518716
  H          -1.47823285016935     -1.01879537061559      2.09677173777895
  H          -2.61509148344989      0.32474745210596      1.67151171845624
  Cl          1.78349000600816      1.66763491106271     -2.03011533384798
  Cl         -0.61823653930902      2.43653907875517     -0.62092083681257
  Cl          1.97011494771200      2.97921487943914      0.51087821277379
  Br         -0.89153302169534     -3.06374628811820     -1.93745447497908
  Br         -0.73370846818415     -0.14550262781749     -3.08506227460731
  Br          1.90552007697575     -1.65688753403022     -2.16287295718977
