20
Coordinates from ORCA-job NEB_product E -51.529834460680
  C           1.46170697200619     -1.64297971482112     -1.55562881735504
  C           1.02596395317624     -1.31093815930946     -0.13962822028639
  C           1.49394707629007     -0.34428269807900     -2.37278159405589
  H           2.49536590414892     -2.01089655753200     -1.53441444167588
  Br          1.84392542414608     -2.52790781098914      1.15377943922035
  C           0.54353431524063     -2.84479275251838     -1.94159205286329
  C          -0.92362045935230     -2.57038966070261     -1.73024912106104
  C          -1.61990628880848     -3.14050553734209     -0.76457982399538
  O           0.26079595606343     -0.50028255175855      0.23395348696638
  C           0.75828587480192     -3.48419555749156     -3.31226260476577
  H           0.83787972535962     -3.62696413231089     -1.22354755622851
  H          -1.39490806567342     -1.89159631574600     -2.42368683322400
  H          -1.17862850285483     -3.82918495640157     -0.06161236644073
  H          -2.66835656355004     -2.93728829295673     -0.63986739343237
  Cl          2.40238263878750     -0.54287529666031     -3.88766216077558
  Cl         -0.09380647359238      0.34583606255829     -2.71759770727013
  Cl          2.42480148241204      0.85665911948751     -1.39384921270564
  Br         -0.15635573789117     -5.22431470405400     -3.27981865350857
  Br         -0.00020339404839     -2.50833509314773     -4.80787219160241
  Br          2.64379616333839     -3.85796539022467     -3.65328217494012
