20
Coordinates from ORCA-job NEB_reactant E -51.521417734000
  C           1.55558858045390      0.14194883759228      0.03081822429264
  C           0.99965277809604     -1.07504739210013      0.04162411171624
  C           1.85890400255617      0.84446477587668     -1.24017736217095
  H           1.80084841560289      0.64223380505044      0.95098245186969
  Br          0.64091220075999     -1.89835622833526      1.71964746953498
  C          -0.13312768634859     -4.60529951542121     -2.92003635136732
  C          -0.21686978574949     -3.36546730277964     -2.46609542666174
  C           0.05110550545476     -2.98738745592119     -1.04642715410449
  O           0.69918421092443     -1.72790358755227     -1.06962968277462
  C          -0.41676836248154     -5.04623102855812     -4.30295158304372
  H           0.14880177685808     -5.42107526608744     -2.26433188568198
  H          -0.48646393236763     -2.53430023042505     -3.10294785332337
  H           0.67656104038121     -3.73533473861066     -0.54314103492121
  H          -0.90441165175816     -2.90830211316796     -0.50552063495120
  Cl          0.37703427501836      1.07329439485980     -2.21925594820661
  Cl          2.56425438995077      2.43469529250660     -0.91812057499817
  Cl          3.01365933583307     -0.09535678913133     -2.23737407854394
  Br         -1.90190134311490     -6.34920838310695     -4.26839943695197
  Br         -0.89993974555971     -3.62650577712642     -5.53080663406436
  Br          1.17187599549038     -5.96296129756218     -5.02645661564789
