19
Coordinates from ORCA-job NEB E -38.506243761410
  C           0.64461348920072     -1.06504606497684      0.13378668659195
  C          -0.74705432815645     -0.96341988360232     -0.09826484071996
  O           1.08577152773085     -1.26359934989165      1.40925295036992
  H           1.27183422868187     -1.58407363890626     -0.58251494313766
  C          -1.27614206336294     -1.15684900403197     -1.51143955660105
  C           1.13603526081866      0.80153489070530     -0.17946053576951
  C           0.33684759612821      1.42813729248348      0.80318675308804
  C          -1.03800067479970      1.47309448622322      0.66675735684440
  O          -1.46228939860290     -0.34448059355848      0.75024004998333
  O           2.48569819696041      0.75910540749522     -0.06545944270999
  H           0.86002251134105      0.91171685444167     -1.22219697771565
  H           0.76695577152572      1.52977962764360      1.79313953561127
  H          -1.46920215192378      1.60551606870590     -0.31362622344578
  H          -1.63790991244273      1.83955504464129      1.48358765578480
  H           0.36168417547910     -1.02925979562926      2.01187827743093
  F          -1.04017091100710     -0.06370669478141     -2.29681778079677
  F          -0.65758683133646     -2.18968088394086     -2.12767263498533
  H          -2.36051941955414     -1.33808068137795     -1.51636960126330
  H           2.73941293331962      0.64975691835731      0.86199327144038
