19
Coordinates from ORCA-job NEB_reactant E -38.525734866140
  C           1.78711663550165      0.07660765436372     -0.15567415538466
  C           1.47747475839841      0.80427166749846     -1.23402260631388
  O           2.16244206718320      0.58252390563183      1.06390227606446
  H           1.74901465994386     -1.00034470129315     -0.23753630823619
  C           1.08104954365869      0.07845502169564     -2.49850364920798
  C           4.18490980289132      3.99063988489028     -1.01918886498820
  C           3.46623390264661      3.02737822255445     -0.45943027026289
  C           1.96972208922913      3.02586270566789     -0.44592233215915
  O           1.42413916925752      2.14510473935386     -1.42498599720692
  O           5.53241843312393      4.04493686024272     -1.07664788183902
  H           3.73690176964326      4.86010053829437     -1.47818711725730
  H           3.94909132485918      2.16665940896236     -0.01660376143481
  H           1.58528953765622      4.00621682675515     -0.73490629751948
  H           1.59496611014721      2.75917225597347      0.54607228697266
  H           2.40692356879699     -0.13748170146130      1.65255555560964
  F          -0.12762890045019      0.48743561542252     -2.94787973064076
  F           1.96013793194897      0.33075931635659     -3.50043783829764
  H           1.03567412398858     -1.01349075388783     -2.36565707705438
  H           5.91162347157544      3.24999253297897     -0.67984623084352
