22
Coordinates from ORCA-job P E -36.386825927490
  C          -1.33654985390269      0.39432700025265     -2.36737062711217
  C          -0.01293713400423     -1.65392772241151     -1.15526974939181
  C          -1.34587237945699     -1.94372100794635     -1.76225268752069
  C          -1.99791072067128     -0.95343145974873     -2.34931735376541
  C          -0.86186428874732      0.75074419721177     -0.94507968743893
  C          -0.09167787298185     -0.39999224591656     -0.26444375317461
  H          -1.75072115258006     -2.94087806003918     -1.70080237593543
  H          -2.96885057867366     -1.06887946533265     -2.80015304840868
  C          -2.25237210173019      1.46357990457320     -2.94181235360014
  H           0.34541962601257     -2.49793462692355     -0.56652924706429
  H          -0.45467832196220      0.34948105895717     -3.02010214424447
  H           0.71342270188974     -1.47003496015935     -1.95341281573864
  H          -1.73880916215740      1.00464479812334     -0.34935056588401
  H          -0.63306726891156     -0.68404979876808      0.64303974065239
  H          -0.22852746720761      1.63622576026046     -0.99809819736522
  C           1.31285717914604      0.04410264129975      0.13607854229538
  Cl         -3.75388448912517      1.60962567663619     -2.00444997140066
  Cl         -1.45482533598086      3.05422458850392     -2.96404295493351
  Cl         -2.68860595640068      1.06076864367173     -4.62381726546005
  H           1.88166913284210      0.34738452722627     -0.74041241123764
  H           1.84432841744067     -0.76938695892312      0.62487242421401
  H           1.26642702716263      0.88364750945261      0.82552650251458
