22
Coordinates from ORCA-job R E -36.293272990880
  C          -1.16011358066975      0.01629538804789     -2.93120225307858
  C          -0.18129001456601     -2.71218043410128     -2.10969738766924
  C          -1.18644351620389     -2.03814252053798     -1.56109030959673
  C          -1.75360308520342     -0.79992733373486     -2.06044429673872
  C          -1.32329016162733      1.01709025109950      0.59834189798847
  C          -0.22566832293607      0.28913773728639      0.67648139432295
  H          -1.66114600206546     -2.42494622329069     -0.66960059888515
  H          -2.72271856079160     -0.53721345636906     -1.66133337036897
  C          -1.72411107585705      1.28414579294691     -3.44457434379367
  H           0.18285436017512     -3.62778838722765     -1.67671431624930
  H          -0.17895733027582     -0.20027815695942     -3.32734322218548
  H           0.30325641727538     -2.38897964388455     -3.01510324670673
  H          -2.19434485264282      0.80711336377927      1.19554127617204
  H          -0.17708864886614     -0.55305322804860      1.35553013035978
  H          -1.39393119949786      1.86170895430213     -0.06673166795199
  C           1.01127054288653      0.53611020957088     -0.11851099386772
  Cl         -3.30531541862724      1.70184965896516     -2.77711490704329
  Cl         -0.59870048816770      2.63204754923585     -3.08455180257957
  Cl         -1.88483875978818      1.18416061453101     -5.23148247373459
  H           0.88062833479318      1.38175224633446     -0.78797852220158
  H           1.26048686606706     -0.34749504368961     -0.70592098230422
  H           1.85018449658905      0.73830266174425      0.54699999611228
