21
Coordinates from ORCA-job NEB E -37.501901169080
  C           0.42512200920027      0.54474367641205      0.35654406520670
  C           0.81308612510968     -0.81042786702746      0.75435664186626
  O           1.35970871877808      1.37673767570321     -0.02616571069550
  H          -0.57169294887168      0.96950857971058      0.53885678325464
  C           0.66010794486736     -1.01115541894439      2.23418580263051
  C          -0.46740257873116     -0.17421594961457     -2.10199633488134
  C          -1.38380148512168     -0.76426452274745     -1.34800727745645
  C          -1.05253268434163     -1.83425637920941     -0.35269942798797
  O           0.32143976117449     -1.87036133438444     -0.01539900641319
  H          -0.71797134315201      0.61006611270942     -2.79733179034183
  H           0.56015939246667     -0.49759843398721     -2.07619996853911
  H          -2.42625244987322     -0.47802793971927     -1.39648890012422
  H          -1.26648266782924     -2.81974106738340     -0.78197609900952
  H          -1.67486376941256     -1.71424947011248      0.54562939908466
  C           1.01638998203739      2.70855504983262     -0.34703070273941
  H           0.82912901132658      2.78395510282402     -1.42196865898779
  H           1.86955406526795      3.33397946250428     -0.08738538088170
  H           0.12785489957195      3.03699004516604      0.19802673755770
  F          -0.64732912571797     -0.77825210418521      2.70600429273202
  F           0.92619827798743     -2.27694833534670      2.59817355004917
  H           1.29957886526331     -0.33503688220023      2.82087198567635
