21
Coordinates from ORCA-job NEB_reactant E -37.610484515910
  C           1.44170381550899      0.25663288131997      0.02714571558825
  C           1.14825839415133     -1.01398626505321     -0.28372607735286
  O           1.33583398676881      1.26805665758559     -0.86556357103933
  H           1.78798859354207      0.50850037477760      1.02218983934401
  C           1.24639210072910     -2.06510427458698      0.78968379985513
  C          -0.55337482746127     -3.60624617313692     -3.89870142045917
  C          -0.42871454111345     -2.48908764963263     -3.20918919937243
  C          -0.09690993374072     -2.43389457666744     -1.75097227920849
  O           0.82013039775269     -1.36048963674755     -1.56077033007748
  H          -0.81469818480012     -3.60221186153301     -4.94260147198344
  H          -0.41028126230871     -4.57310047734015     -3.44457797611354
  H          -0.56381607266345     -1.52087574552234     -3.66912186668663
  H           0.33331872718363     -3.38661293034013     -1.42017975239787
  H          -1.01568393937040     -2.24389000511936     -1.17507054153222
  C           1.86243940668482      2.50559634525412     -0.44717881783530
  H           1.62648739315751      3.21836623872620     -1.23478567908923
  H           2.94882095955704      2.45292672790920     -0.32001151581607
  H           1.40715493729051      2.83730336389705      0.49210117575791
  F           0.02415980552589     -2.55060073587766      1.15609298097497
  F           1.95785953992949     -3.14756904880105      0.38589308326590
  H           1.72193070367623     -1.67351320911130      1.70054390417788
