21
Coordinates from ORCA-job NEB_product E -37.620862032920
  C           0.79621684455865     -0.87151050135241     -0.91556678656977
  C           1.40214785715052     -1.97369113567052     -0.05782426211397
  O           1.78116951459469      0.13316498108120     -1.05629240949508
  H          -0.05818551240219     -0.47668420230918     -0.33679445814593
  C           2.22367189299113     -1.40981050883952      1.12059716371000
  C           0.29223853105637     -1.42052116153140     -2.26002704682979
  C          -0.97690909908431     -2.19602329739937     -2.09790993229967
  C          -1.13462067717734     -3.45130107132548     -2.46943785427513
  O           1.29997693402945     -3.14747894069147     -0.25288984875676
  H           0.11704205673891     -0.56840003847576     -2.92296820766376
  H           1.06756792528879     -2.04677557557799     -2.70207068895235
  H          -1.79668076409917     -1.64915335969365     -1.64822631769069
  H          -0.33066058840242     -4.01459350819423     -2.91150709298582
  H          -2.06901189341655     -3.96918785693940     -2.34011840397768
  C           1.27410374725983      1.44168144908273     -1.19200547807951
  H           2.14187502479180      2.08808701734793     -1.30255488724962
  H           0.70951621120463      1.73676834051689     -0.30078859118036
  H           0.63466567266626      1.54199136799841     -2.07503434024636
  F           1.58969418624624     -0.36285621519267      1.69998745577117
  F           2.40078580701009     -2.33752230343962      2.08083504539783
  H           3.21109632899462     -1.06498347939449      0.77289694163327
