18
Coordinates from ORCA-job NEB E -42.705812538310
  C           0.56881784273218      1.09551239527556      0.37003029980702
  C          -0.82291259352122      0.89290753684776      0.27155665867940
  Cl          1.32929890138535      2.09223578125058     -0.84645769373473
  H           0.99472313636104      1.29416340694427      1.34810132605424
  C          -1.52428084063411      0.50963381175961      1.58004841405362
  C           1.25438101791965     -0.66253527144390     -0.08771172692917
  C           0.59604524263121     -0.87300092948639     -1.32079872198352
  C          -0.78390175877871     -1.03277216549459     -1.36563516195518
  O          -1.37444133662824      0.58270740014678     -0.82415407314042
  O           2.59213724015963     -0.51629817931867     -0.01852618100752
  H           0.89966118740361     -1.20426954221712      0.78432715423629
  H           1.10771111803201     -0.54167015617334     -2.21544097075929
  H          -1.27329539470549     -1.59539416404704     -0.58249680946244
  H          -1.26492970698512     -1.09012646455282     -2.32962144337999
  F          -2.84726213023639      0.47135488511478      1.45362552210192
  F          -1.14411480880979     -0.71311309817337      2.02404570826305
  F          -1.23419511648979      1.36431002572337      2.57197801972579
  H           2.92655800016417     -0.07364527215546     -0.81287032056908
