18
Coordinates from ORCA-job NEB_product E -42.727505528830
  C           3.09897080617434     -1.32963690930168      0.51249248633953
  C           1.60450372181875     -1.25248232031641      0.52988475575593
  Cl          3.73608687298136     -0.05708462902861     -0.56829217125099
  H           3.52131511721699     -1.15616263742673      1.50589330167451
  C           0.95981652478167     -1.98482318746536      1.75170759815028
  C           3.59850487042164     -2.72928865644391     -0.00012151683853
  C           3.03153205558176     -3.00182418311584     -1.36703462053710
  C           2.06399722454979     -3.86764746159949     -1.59787295860851
  O           0.90543430930243     -0.73355590306824     -0.28646324584924
  O           4.98699191080530     -2.76595491871597      0.03652117545875
  H           3.26315163210090     -3.49001972883364      0.71257686484257
  H           3.47895632822412     -2.43147363576552     -2.16918819073369
  H           1.61323061311068     -4.44377165992189     -0.80682593093440
  H           1.68349043507587     -4.03403657055688     -2.59035861010170
  F          -0.28976172839646     -1.58728060535599      1.95651477868554
  F           0.93609680958979     -3.31235831390088      1.55542774141118
  F           1.64449598788680     -1.77471566888259      2.88452149874232
  H           5.33498650877424     -2.12018301030040     -0.59508295620646
