17
Coordinates from ORCA-job NEB E -36.091022845810
  C          -0.25379160789828     -1.52351676574172      1.08285572671445
  C          -1.23392739512985     -1.44093183414381      0.18523150359767
  Br          0.46176625130014     -0.04296723360920      2.09860930063613
  H           0.31855381440324     -2.41559463833486      1.24601701375107
  H          -1.45815112484103     -2.36057269349129     -0.34959474195351
  C           0.54741177362452      1.29642673829954      0.65088778495190
  C          -0.57347529438884      1.44260960736788     -0.05715919218958
  C          -1.90211843823079      0.85338570152374      0.30117092935122
  O          -2.04690818108697     -0.47811662417316     -0.20901511870332
  C           2.29458013788579      0.09519590865244     -1.01832330348089
  H           1.56355162235290      1.35568737860140      0.23431945591229
  H          -0.50537894726794      2.02520280349843     -0.96396365921423
  H          -2.71666631801255      1.40604139125663     -0.16982588062534
  H          -2.05359842868996      0.84720712897279      1.38891638001306
  Br          0.84622801835914     -0.42019907596416     -2.27122454537641
  Br          3.76431998489719      0.90985619083364     -2.02738187549395
  Br          2.94760413272329     -1.54971398354831     -0.12151977789055
