17
Coordinates from ORCA-job NEB_product E -36.231582394460
  C           3.03841197436119      0.71607498141055     -1.96982101078253
  C           1.55404205932019      0.43010668161603     -1.86546523401777
  Br          3.73984329537895      0.45172368126784     -0.15213354226329
  H           3.50134116490348     -0.07731681773177     -2.56756623584315
  H           1.33781285944786     -0.52053619299627     -1.34970996012435
  C           3.31219331738321      2.10822144128923     -2.55202047353651
  C           3.31457314071798      3.17706756896751     -1.49048095149009
  C           2.28256078957287      3.96713334880225     -1.26604405656657
  O           0.69685216305823      1.14980256412314     -2.27967877944328
  C           4.59212938563928      2.16614010568227     -3.37277849435921
  H           2.47740340395226      2.31237004447965     -3.24048049811744
  H           4.21638712272620      3.25205609580782     -0.89737102954921
  H           1.37401524259813      3.89763363154317     -1.84127517667179
  H           2.30704405231921      4.70756703959753     -0.48637823585316
  Br          4.82364189033856      3.97484377216445     -4.08710053677154
  Br          6.18010374603096      1.71136111068168     -2.34118174977747
  Br          4.49414439225144      0.93405094329493     -4.90571403483262
