23
Coordinates from ORCA-job NEB_product E -61.525610190630
  C           2.63144783895022     -1.22527405890726     -1.24639843887549
  C           1.59918550570984     -1.08709021618306     -0.13350096310502
  C           2.89395532181110      0.16251904226818     -1.84720233083966
  H           3.59185829098292     -1.54944452490940     -0.82805505378002
  C           1.71322477166630     -2.15071289138709      0.98856474476648
  C           2.10291352988024     -2.34510677177460     -2.18814663594127
  C           0.70996318256195     -2.06526729040298     -2.69472293858062
  C          -0.31939817571459     -2.83706143831046     -2.40366527548519
  O           0.72794305596670     -0.27362795217946     -0.10543013275413
  C           3.03612328237838     -2.68619774617046     -3.35981706639356
  H           2.07110498521454     -3.25569392259576     -1.57731080938230
  H           0.59384962361428     -1.19493541107462     -3.32079878710510
  H          -0.22516244763120     -3.71058434285128     -1.77973697311951
  H          -1.30309778838322     -2.61827970304907     -2.77897618066511
  F           4.02541450785385      0.19032091497347     -2.55849194728566
  F           1.92553834768470      0.63829673223631     -2.62306931932533
  F           3.07067894509465      1.05114989909054     -0.85455052738995
  F           1.01386318355009     -3.25250080729161      0.62877584780748
  F           2.98826750632317     -2.54946518862124      1.17325055052131
  H           1.30910662302523     -1.77667980874165      1.94056987110626
  Cl          2.48275473645256     -4.24130852387418     -4.03917122947662
  Cl          3.00175689436250     -1.48838878288890     -4.66620646359022
  Cl          4.71580827864579     -2.89816720735540     -2.80670994110679
