22
Coordinates from ORCA-job NEB E -56.654750842120
  C           0.45991584807365      0.79459978529754      0.29296519140162
  C          -0.86106480758761      0.70992722800663      0.78592749178070
  C           0.68121041829099      1.66087025481176     -0.93424234103635
  H           1.23651639110630      1.00219089691971      1.02821260592625
  C          -1.05745765401976      0.45590879463174      2.27182541487779
  C           0.73009230704857     -0.96941938209618     -0.28545057828475
  C          -0.35418139341464     -1.22756061970049     -1.13445727398162
  C          -1.67553281657752     -1.11364323538390     -0.59928969911684
  O          -1.82570020435912      0.35564916061348     -0.01463296487783
  N           2.07637016480174     -1.03173167403864     -0.89237148431227
  H           0.76752500948929     -1.41055324848788      0.70828236162756
  H          -0.19469527807805     -1.12948873371893     -2.19930922633668
  H          -1.87694878328850     -1.71275907391451      0.28722768588666
  H          -2.47821705198096     -1.17171244646147     -1.32575884156089
  F           1.95534884028844      1.63326816986684     -1.33849041538764
  F          -0.07307998675647      1.34803745826854     -1.98638240770361
  F           0.40937859597276      2.93801674540560     -0.62860429353829
  F          -0.76331290390328     -0.85070672558810      2.55985100882386
  F          -0.21330013926230      1.19765289490189      3.01187450258991
  H          -2.08987329947572      0.64485480045591      2.59642316410301
  O           2.15263056930442     -1.06877107779209     -2.09086181715898
  O           2.99437617432775     -1.05462997199744     -0.11273808372160
