22
Coordinates from ORCA-job NEB_reactant E -56.689415965710
  C           1.89285738733203     -0.23111819026879      0.15340999270589
  C           1.44586951215092     -1.37654764019923      0.68479316190684
  C           2.07770809947746      0.15414922900407     -1.27718740981369
  H           2.15499431788905      0.57314482943808      0.82123892502179
  C           1.36052933781824     -1.46829932555939      2.20952104142082
  C           3.55669118244207     -3.47459960867128     -0.73386042567435
  C           2.52993092880801     -3.34174976177748     -1.56302759633628
  C           1.15787659266288     -2.89891948303427     -1.18454813086775
  O           1.03290146033886     -2.53517818550674      0.17853338317770
  N           4.83670405155820     -3.91259404770581     -1.22005645599330
  H           3.54744662382069     -3.27486580232118      0.32708682746732
  H           2.67084079345891     -3.57705328164259     -2.61064504732845
  H           0.47382552517364     -3.74904412269698     -1.29762392686512
  H           0.80963004355294     -2.10971714164901     -1.85696081652923
  F           2.95013025192865     -0.62131731677668     -1.95101947195326
  F           0.93414937720877      0.11900923779556     -1.99503723996773
  F           2.53665061935127      1.40335860535925     -1.36824022377215
  F           0.13432644685453     -1.87086569511458      2.59057183972697
  F           2.23388257975420     -2.40367730332276      2.64525880664217
  H           1.58988831733536     -0.52076794887505      2.71723696150162
  O           4.92541310940859     -4.24886273112590     -2.37894325772689
  O           5.74365344167473     -3.91118431534924     -0.41910093674292
