22
Coordinates from ORCA-job NEB_product E -56.689201017810
  C           2.73131043685393     -1.16570104835042     -0.04865558819937
  C           1.47690290953262     -0.94713044798942      0.77645321288629
  C           2.75532389067549     -0.19204214991426     -1.23621064128385
  H           3.60524828921182     -0.91727247364775      0.57889603149543
  C           1.40249410119925     -1.79277652534319      2.07384949002593
  C           2.90741558702841     -2.63159194355039     -0.49596290337097
  C           2.09437169433755     -3.01569753809248     -1.69736364401827
  C           0.96379271405848     -3.69029382395213     -1.60978365957160
  O           0.59202988714455     -0.19760123296054      0.49751946519100
  N           4.37699304978019     -2.89269911466702     -0.76100669381637
  H           2.66413067181581     -3.29819385639172      0.33991386653057
  H           2.49056633653393     -2.70545894657297     -2.65324844868532
  H           0.55711296603532     -4.01254057073716     -0.66501723049465
  H           0.39616078217141     -3.94055548691805     -2.48753098765203
  F           3.79937622886852     -0.44260171796078     -2.03863405283868
  F           1.66650527307467     -0.25039855175067     -2.00228238123787
  F           2.88181415940885      1.06782973461253     -0.81451250840616
  F           0.79201031153387     -2.97076732354487      1.80093235518524
  F           2.63033859414966     -2.09720416693576      2.54263102805906
  H           0.83011477054141     -1.27688071100949      2.85781790627865
  O           4.62261289373679     -3.75789130900290     -1.55189264172487
  O           5.17007445230747     -2.24623079532055     -0.12941197435217
