21
Coordinates from ORCA-job NEB_product E -41.525868894550
  C           2.04018297622069     -1.04210163670278     -1.97916797728085
  C           0.55895397514714     -1.45359107897295     -1.94748096379847
  N           2.17982502960417      0.04465353731158     -1.03973668829982
  H           2.69324950479512     -1.86085452146993     -1.65578319372075
  N           0.31157576098499     -2.69048099279606     -1.48586450214738
  C           2.39961780661270     -0.65650076231128     -3.45114910078837
  C           3.74739316848539     -0.00062416767688     -3.52145451715299
  C           3.92251393931806      1.28719322483161     -3.75136402416062
  O          -0.30519181638165     -0.68360192786122     -2.29825121165418
  C           2.40927407532291     -1.90161214533453     -4.32163238683789
  H           1.61733575705736      0.00989865333914     -3.83138001832335
  H           4.58828601406516     -0.65626937523000     -3.33795602956291
  H           3.09266863427111      1.94977324326624     -3.93487646391589
  H           4.90351918714926      1.72858622043996     -3.77305117039495
  H           3.08286390197141      0.49750504200875     -1.13100195934988
  H           1.45316912713451      0.73405364166733     -1.20434197730409
  H          -0.64285778446535     -3.01100523797103     -1.45936234387885
  H           1.04225951700916     -3.32724824534157     -1.22466974548329
  F           3.28473387806058     -2.82565506278774     -3.88062438690906
  F           1.22195121366433     -2.52388185028201     -4.37754167470109
  F           2.75417613397293     -1.63313655812664     -5.58910966433533
