20
Coordinates from ORCA-job NEB E -41.425002269320
  C          -0.28475519761169      0.14176447901309     -0.92752485814027
  C           0.62265181483293      0.82590306478854     -0.09510445964889
  C           0.12124482782100     -0.78329994707419     -2.03929349292990
  H          -1.13296463123138      0.74811000158583     -1.23134728808170
  C           2.02989537779533      0.36378623279075      0.20845662637587
  C          -1.21675665540825     -0.88635750380665      0.41441539860872
  C          -1.68070325546827      0.09832108442424      1.27920583438479
  C          -0.70915685366401      0.89651569570483      1.95306792051781
  O           0.09042428117962      1.64714526048257      0.77003331586157
  H          -1.94569243849042     -1.42994255712245     -0.16905797301659
  H          -0.38457179350652     -1.49807279533320      0.73705040531544
  H          -2.64788122822808      0.54088172255912      1.08954026082144
  H           0.08993938972683      0.35943297136234      2.45822084224810
  H          -1.08178395658156      1.72831654208137      2.53833625297894
  Cl          1.12030329038935     -2.14431765698324     -1.50777571393895
  Cl         -1.34162243137745     -1.46695914403404     -2.80507707688456
  Cl          0.99900102257191      0.12341919833733     -3.30652291505796
  F           2.80086081848522      0.25269045852880     -0.91690893873987
  H           2.03993732902157     -0.62251387608134      0.69543283650742
  H           2.51163028974387      1.10517676877630      0.85485302281858
