20
Coordinates from ORCA-job NEB_reactant E -41.456670398430
  C           1.37464199981808     -0.70811068447515      0.44548878387984
  C           2.11132803651548     -0.64719141522010      1.56360945474370
  C           1.84440365979489     -0.97295835387646     -0.93396618325237
  H           0.31545186464011     -0.51000592786964      0.49565767938433
  C           3.60534107117228     -0.85131535274796      1.66039261575968
  C          -1.47055854999141     -1.82942776618339      3.83859996479908
  C          -0.52911370879712     -1.50849430032427      2.97232752411092
  C           0.23759626170388     -0.21795436907527      3.01825622395556
  O           1.63046640687873     -0.39263878471189      2.79564280872805
  H          -2.01126875862761     -2.75677408169935      3.76776702538336
  H          -1.74792551037483     -1.17271673541315      4.64651959301434
  H          -0.25796132932442     -2.18198784688668      2.17178332688275
  H           0.17514913836185      0.22405374924300      4.01577564799920
  H          -0.17198959770038      0.50124198458828      2.29542710842031
  Cl          3.02747079386568     -2.29379628105499     -1.04932787312213
  Cl          0.44531418447336     -1.44409488058228     -1.93816825607622
  Cl          2.56442610420912      0.49235985932362     -1.68444313409931
  F           4.28576698490784     -0.10859100277983      0.73692136599391
  H           3.87447076899387     -1.90005094915615      1.49525940841507
  H           3.93849017948059     -0.52604686109835      2.65097691507994
