20
Coordinates from ORCA-job NEB_product E -41.464103233690
  C           1.32689642390953      0.11147588956563      1.55142104165368
  C           2.60046490847536     -0.38505288869797      2.25291061477952
  C           1.17672386960404     -0.17971617068573      0.06433410044699
  H           1.36879617763091      1.20545513690554      1.63272019710331
  C           3.27232025019473     -1.63865260464336      1.72645644661823
  C           0.10325400419582     -0.33828038565765      2.39193566878510
  C           0.00708573975383     -1.80977814455023      2.64910932660112
  C          -1.00405824749763     -2.56074225302168      2.25568109777547
  O           3.00447624840296      0.20160110115922      3.21565690787840
  H           0.18922715154184      0.17148458043579      3.35520115066764
  H          -0.80445612265757      0.01109814119715      1.89843778515724
  H           0.80415335100952     -2.23372669670844      3.24486396689457
  H          -1.81817934226220     -2.15658653251506      1.67677552264978
  H          -1.06032815764573     -3.60914337449866      2.49100156375310
  Cl          0.93660560215601     -1.88829372245281     -0.33696252513474
  Cl         -0.22824558333849      0.71970975942055     -0.57792079370020
  Cl          2.61930454769260      0.41202445326133     -0.81686745558335
  F           4.30647546095681     -1.99356159491959      2.54360820560946
  H           3.68968500570213     -1.46470299486376      0.72892938681564
  H           2.57339871217555     -2.48061169873025      1.69580779122905
