20
Coordinates from ORCA-job NEB E -45.280579266280
  C           0.36147472379496      0.13082783859373     -0.94714029978521
  C          -0.89760054231208      0.48113201690225     -0.42675134070494
  C           0.45862595886149     -1.19570995576158     -1.68025794895267
  H           0.89141477645757      0.91298172374516     -1.48743299585667
  C          -1.20793832008205      1.95091821661030     -0.20347880406214
  C           1.31075031287649     -0.07728693115740      0.66874965382669
  C           0.54929633895293     -1.01740246352979      1.36633751081748
  C          -0.80321319498894     -0.66965755045685      1.69391476608279
  O          -1.53749535481354     -0.38329785953664      0.32061111464606
  I           3.33095529719730     -0.58036386369864      0.22330549958272
  H           1.27687933780205      0.95455146420952      0.99339683657046
  H           0.80890956213886     -2.06432451204375      1.30772066317622
  H          -0.93270188715621      0.26927328515697      2.22936203900184
  H          -1.39712066432244     -1.46664585588893      2.12797840311430
  F           1.58766375344346     -1.23174372931065     -2.44592862127603
  H          -0.38948020986436     -1.28870299907107     -2.36778076887466
  H           0.48311862749906     -2.06237037322205     -1.01454956135548
  F          -2.50967190482982      2.17563591536650     -0.03530696270945
  F          -0.59305842219492      2.45136571603612      0.90159218146848
  F          -0.79080818845983      2.71081991705681     -1.22434136470978
