20
Coordinates from ORCA-job NEB_product E -45.312411736550
  C           2.75413612367503      0.24735876028946      0.88969305166927
  C           1.34923521068794      0.73610999674895      1.13655441493592
  C           2.67862013673967     -0.95697899642493     -0.05842012109026
  H           3.36081845354840      1.03980619078578      0.44140150935461
  C           1.23321727548905      2.28878893774489      1.19201245672861
  C           3.31895488014177     -0.09381434094863      2.29266625439628
  C           2.80685356494410     -1.37582435617548      2.84423477663314
  C           2.03195568101536     -1.43763811356996      3.91204822482788
  O           0.38754029947759      0.04817932429802      1.31219599473285
  I           5.49953373591289     -0.13522973724155      2.23778509939290
  H           3.09492437971464      0.72938204728760      2.97346979613714
  H           3.12284677113807     -2.27375896748428      2.33256805673905
  H           1.72058494143847     -0.55364827534796      4.44485706755164
  H           1.67486709499011     -2.37733781026248      4.29443083036311
  F           3.88770620198670     -1.57568038399035     -0.16988613028483
  H           2.39187975118739     -0.62661207493613     -1.06241405984482
  H           1.95989271093866     -1.69492758481558      0.31171127259334
  F           0.00432246260289      2.69699989868958      1.47893521601116
  F           2.06203091252964      2.80699236805566      2.11134097409565
  F           1.58167941184163      2.82063311729740      0.01111531505734
