24
Coordinates from ORCA-job NEB E -32.754924831450
  C           0.03728405726085      0.67413036392453     -0.86381291194037
  C          -0.52368685550077      1.80343921582834     -0.23403195021830
  C          -0.68013227942593      0.05624010746082     -2.04448130374449
  H           1.10241814844981      0.78229023275123     -1.05790277230383
  C           0.35179711782851      2.79035060357621      0.26832007999902
  C          -0.12022095593251     -0.66352539043690      0.50321698116582
  C          -1.06885871545586     -0.19743012810450      1.42296374350862
  C          -2.23775262172699      0.45398727913119      0.85639319493713
  O          -1.74481121556701      1.76005206152644      0.29611277523152
  C           1.26696914950917     -0.99034781600068      1.01817660117421
  H          -0.49724112589816     -1.40615519702534     -0.19332492590331
  H          -0.70180051828576      0.23257509735335      2.34852287842597
  H          -2.98752102777496      0.77262969826458      1.57710609007007
  H          -2.70550018197202     -0.10035162618427      0.03876899854243
  H          -1.74164619415748     -0.08355428656058     -1.86088562995420
  H          -0.23515722207020     -0.89796057767902     -2.31855402428385
  H          -0.57568738363485      0.72973479852125     -2.89624665999934
  N           1.05792490437309      3.63816030833590      0.59548422540219
  C           2.10484895095138     -1.77632375702649      0.01682607856186
  H           1.16289296077338     -1.58184096000112      1.93169321829445
  H           1.78135901146602     -0.06546813434796      1.29035166593500
  H           1.61607791103253     -2.71560070110900     -0.23467869939476
  H           3.08035115699826     -2.00320302041409      0.43979552190774
  H           2.25809292875952     -1.21182817178389     -0.89981317541358
