24
Coordinates from ORCA-job NEB_product E -32.795800775410
  C           2.43703805308185     -1.37114115904743      1.05138194922074
  C           1.52209738813455     -0.17366767597116      1.25596690985511
  C           2.21530733480550     -1.93152625327375     -0.35068036578284
  H           3.47314483209277     -1.03813270802609      1.17420741596241
  C           2.07790411877876      0.79074734854751      2.19446104664639
  C           2.10565257853947     -2.41220543255472      2.16192869038813
  C           1.35181894751290     -1.75975073143597      3.29148829667464
  C           0.05769504527110     -1.90968939124298      3.50608001731094
  O           0.47092511547388      0.00352837093981      0.69829505329349
  C           3.36419075803041     -3.07833685771924      2.73226575586763
  H           1.46295465643553     -3.17721290031200      1.71542320798040
  H           1.94904440831371     -1.15017812399929      3.95796600460533
  H          -0.44320943257521     -1.42350733764902      4.32537262302510
  H          -0.55847716724496     -2.51673059890179      2.86285618058088
  H           1.15569932327042     -2.12149785360453     -0.50645571677296
  H           2.76411623772217     -2.85733749035779     -0.49076918044346
  H           2.54477223380013     -1.21386455815073     -1.09984511536620
  N           2.57205874189559      1.55279446097942      2.89189114836579
  C           4.14192220796022     -3.91283590135395      1.72270327527400
  H           3.04910512911200     -3.72349570567022      3.55637336308097
  H           4.01813782857890     -2.30874144251488      3.15015154227870
  H           3.49817174166453     -4.66188406991630      1.26659739247412
  H           4.96011078014781     -4.42706104553138      2.22161136559313
  H           4.56621913919796     -3.29067294323351      0.93882913988754
