24
Coordinates from ORCA-job NEB_reactant E -32.791279010640
  C           1.97132795669855     -0.06644243108641      0.30217713125330
  C           1.42797336202047      0.45477655260403      1.41374256907966
  C           2.04573497267483     -1.47777630874887     -0.18459431343025
  H           2.41383097318392      0.66523562029117     -0.36140513178309
  C           1.53780064424622      1.87205087598283      1.54791504436537
  C           2.09816294082350     -3.42822539719297      2.85257836972222
  C           1.81320646768573     -2.16058947392087      3.10029435112877
  C           0.57132783232324     -1.45963788273767      2.62912120181692
  O           0.75133434492359     -0.06697330844625      2.47382430121277
  C           3.32727019968546     -4.13260477920454      3.32807610613181
  H           1.42162520437256     -4.02806527570498      2.25476904630795
  H           2.47512946183386     -1.54920837582606      3.69901583937735
  H          -0.19782276499458     -1.52795500524942      3.40922202693591
  H           0.17328487858734     -1.91505141878508      1.71574617674986
  H           2.21301095442187     -2.18623705145521      0.62215086877970
  H           2.86204682994455     -1.56812466189315     -0.89806313803138
  H           1.12550889836692     -1.75261225687633     -0.70383383763676
  N           1.64360238357555      3.00966467946925      1.63124188974703
  C           4.16698898634644     -4.62455535098624      2.14876701576978
  H           3.03174329883104     -4.99162464473677      3.93686447975498
  H           3.92191260118172     -3.46242454310915      3.95080972587106
  H           3.58768955079922     -5.29833953290758      1.52105592761086
  H           5.04568241303093     -5.15601334401460      2.50533629983944
  H           4.49532760943709     -3.78416668546517      1.54098804942673
