17
Coordinates from ORCA-job NEB E -25.991401547910
  C          -0.51520468293182     -0.03816468188601     -2.13924327640697
  C          -1.51363152522683      0.40007643656021     -1.39012115579425
  H          -0.10001611696545     -1.01723422873303     -1.99093664106803
  H          -0.10318687147369      0.56837980074512     -2.92176188736784
  Cl         -2.20150864995654      1.97412872688496     -1.70560144050921
  C           0.74915130181226      0.33664500104046      1.06205070777226
  C           0.04455805011553     -0.71315650053196      0.66786545186326
  C          -1.44906759126496     -0.76941542808368      0.73503857998799
  O          -2.15992658884089     -0.21605192815465     -0.39400278906087
  C           2.23270078340253      0.43608898045110      0.99423621746449
  H           0.23964127310550      1.20747168764033      1.45544948855152
  H           0.54584697942635     -1.58447200848730      0.26985944450110
  H          -1.80514158368203     -0.20283764354398      1.60398321783397
  H          -1.79441093693628     -1.80427021843045      0.82163202945050
  H           2.63809766257294      0.70156294705064      1.96946172948683
  H           2.51694007235503      1.22233177198610      0.29524908822523
  H           2.67515842448835     -0.50108271450790      0.66684123506999
