17
Coordinates from ORCA-job NEB_product E -26.024470703060
  C           3.28800851423711      1.27979786489580      1.60210215666840
  C           1.82432267321343      1.53135872075749      1.48536469466378
  H           3.61921458746677      0.67509789154926      0.75556900392149
  H           3.79053465276439      2.24844077165026      1.52148110476370
  Cl          1.38190210075669      2.00956355019821     -0.17463641226229
  C           3.64991800075777      0.60084054863306      2.93278824769311
  C           3.11438303933360     -0.80123538283605      2.94975590556365
  C           2.22260080691829     -1.24847803996028      3.81172412714898
  O           0.98411734964609      1.47445713897020      2.31450248524054
  C           5.16861568956495      0.58837972670301      3.11083466980587
  H           3.19268950797577      1.16708201823784      3.74909416035712
  H           3.52025508241883     -1.45601140376747      2.18870167336135
  H           1.80298437691482     -0.61131376894974      4.57189364412270
  H           1.86697422884471     -2.26436536006119      3.78903150440914
  H           5.56236635171380      1.60194633845157      3.13270307241055
  H           5.64438228776986      0.04877189927705      2.29471632183839
  H           5.42963074970314      0.09686748625098      4.04457364029351
