17
Coordinates from ORCA-job NEB E -29.557852248360
  C           0.38588075160750      1.15326519196493     -0.30456970885085
  C           0.46489268139741      0.56686454140873      0.97364921453447
  O          -0.70610384467873      1.93999033056911     -0.56063829193291
  H           1.32357051113547      1.50812756176157     -0.73875790089666
  N           1.70185013538718      0.09992661073923      1.41278149427213
  C          -0.00949592571921     -0.53238281803780     -1.25218697019646
  C          -1.19637954074338     -0.94964180263185     -0.66356733554560
  C          -1.11619631326070     -1.27423433536104      0.72096094866835
  O          -0.59269344356102      0.05466768656429      1.51575113311354
  I          -0.04187276186174      0.01263483803135     -3.31613882185702
  H           0.91090156609655     -1.05501401183892     -1.02634870647919
  H          -2.13587686405886     -0.58534959995384     -1.04989852605505
  H          -0.33258248277970     -1.97559270597297      0.99966484330346
  H          -2.05565750006002     -1.47677889819686      1.21932547965308
  H          -0.77663845891242      2.10498533097501     -1.51149904462200
  H           1.67922553292682     -0.28313592944565      2.34609891788016
  H           2.49717595708482      0.69166800942474      1.23537327501057
