17
Coordinates from ORCA-job NEB_product E -29.619621582770
  C           1.40041870752632     -1.29004304593737     -1.04259370116878
  C           1.06147807188507     -0.89441068275946      0.40195752927657
  O           0.86685333231735     -0.34456800762697     -1.91204983334886
  H           2.48919236116740     -1.31947154002715     -1.18685835730309
  N           1.75955312114523     -1.52304054111733      1.36436446076562
  C           0.81001469256659     -2.69140746903645     -1.27947055617186
  C          -0.65978286058582     -2.72016137649504     -1.07929116009567
  C          -1.26857495439914     -3.56051708351218     -0.26237727968565
  O           0.18762457425520     -0.08455157440709      0.61778405030570
  I           1.26096831078704     -3.28777543220254     -3.33182013989530
  H           1.31189222478136     -3.42827129808198     -0.65130498690646
  H          -1.21790645924301     -1.99559822367215     -1.65563609552180
  H          -0.72457140953954     -4.29526602134204      0.30973544085886
  H          -2.33614698787278     -3.54709173616650     -0.13220335211098
  H           0.19914412161991      0.15750046986331     -1.41222679771029
  H           1.57511913531825     -1.28791625416813      2.32645171240457
  H           2.53252401827058     -2.13031018331094      1.15903906630742
