19
Coordinates from ORCA-job NEB E -49.218414827750
  C           0.48072875014831      0.49370881013497      1.01699210042727
  C           0.12497594936462     -0.81845871066235      0.65419106178384
  N          -0.21133362164671      1.25276276746188      1.94425818881559
  H           1.46854395891255      0.85321672071943      0.78764155617827
  C           0.51809955563043     -2.04291818170324      1.52410345668305
  C           0.33301139275402      1.56954185633668     -2.18964266154128
  C          -0.06944352982504      0.31014954931552     -2.17245195162549
  C          -1.12807246869141     -0.18765069718967     -1.24052684876476
  O          -0.60143636891695     -1.18041331708518     -0.34208625210628
  F           1.26941734924990      1.98256713533727     -3.03671335797132
  H          -0.04115712945254      2.36927002568814     -1.56489625490189
  H           0.37468706530908     -0.41366579589277     -2.83963312117823
  H          -1.91468446730198     -0.71444186304814     -1.78615587859034
  H          -1.55011012047670      0.63389378539123     -0.65496636356125
  O           0.29061196191180      2.31067585810115      2.28989648597838
  O          -1.32308291984180      0.85985656460542      2.28562568891605
  F          -0.47882061641469     -2.91428047928008      1.65443519826920
  F           1.53952502795447     -2.68979835335430      0.93815234377595
  F           0.91854023133264     -1.67401567487595      2.73177660941323
