19
Coordinates from ORCA-job NEB_product E -49.288486849880
  C           2.14772885898113      0.60446164155665     -1.52304033073450
  C           1.27238156546623     -0.49903007384551     -0.97822895225508
  N           2.09356337611769      1.76782251865034     -0.54244653982702
  H           3.19697750727741      0.30705275524455     -1.61654972774928
  C           2.03818888851353     -1.84506446359313     -0.79428318712592
  C           1.58103682697354      1.07688283275540     -2.88380344176450
  C           1.37746657262684     -0.08000066197241     -3.81779877309072
  C           0.19136723588735     -0.59406337609104     -4.08054435681060
  O           0.11807238040940     -0.39341785188114     -0.70317188402771
  F           2.49179100036922      1.95723936600569     -3.41537168194956
  H           0.65148544235897      1.63459341556353     -2.70595920828076
  H           2.28259623297804     -0.46520813322610     -4.26427435942670
  H           0.08036863905186     -1.43154950944888     -4.74598705383602
  H          -0.71068311211265     -0.20457457293271     -3.63796372392148
  O           3.08436255418148      1.93748355665629      0.10533737285180
  O           1.06979246467293      2.38196409922217     -0.49842377595603
  F           1.23560388539434     -2.83221506745906     -0.42783155497760
  F           2.64068204924913     -2.20322608019009     -1.93828713871279
  F           2.99731763160354     -1.71515039501453      0.12902831759449
