24
Coordinates from ORCA-job NEB_product E -32.004180330900
  C           1.68024435060962     -0.85115362339705      2.07545015673223
  C           1.75156154853832     -1.90786687763240      0.95859825021925
  N           1.69216698880282      0.47473860721609      1.47244505533664
  H           0.69744045309834     -0.99338976882536      2.54345365205209
  N           1.32288507061071     -1.44836859932153     -0.22959875717250
  C           2.77533114004299     -1.14137824490822      3.13849523164369
  C           4.05714758827217     -0.44319027495554      2.77872017969721
  C           4.88350556795253     -0.87297372833923      1.84235179052487
  O           2.12148364010636     -3.04659834144228      1.14419436545504
  C           2.32636696133501     -0.82381586143395      4.57157113968215
  H           2.94842655080814     -2.22243768125501      3.08107746054902
  H           4.28160614703177      0.46661216053572      3.32151306388940
  H           4.68377242978602     -1.77781205154895      1.29222404703497
  H           5.79043914192435     -0.34755940730737      1.59257471070584
  H           2.62734938674769      0.67363642824036      1.12639378159116
  H           1.47216831497413      1.18013839444707      2.16608383373410
  H           1.04831065189947     -0.48227858445182     -0.30028231883065
  H           1.30887993756441     -2.05636709065623     -1.03016709597359
  C           1.82639513599457      0.59948346836763      4.80224468179665
  H           3.17348792664832     -1.01420699714337      5.23528197719285
  H           1.53213133115384     -1.52132801392088      4.84747764996306
  H           2.56156108939476      1.33653980715197      4.48591166122845
  H           1.63484784060318      0.75448546469776      5.86202304623789
  H           0.89509080610048      0.78019081588259      4.26906243671021
