24
Coordinates from ORCA-job NEB_reactant E -31.969492673450
  C           1.25164274976476     -0.28213691120444      0.12490240479329
  C           1.93005158823300     -1.43304796223859      0.16688024499849
  N           1.21465584467453      0.67875512772807      1.15209126825449
  H           0.75828906164686      0.00698097111799     -0.78996347424630
  N           2.07269757454649     -2.28568569872515     -0.94617546317021
  C           2.55114267754765     -0.99329744827452      3.93846063857232
  C           3.54186159969496     -0.63998893887561      3.13625180395595
  C           3.70628462977592     -1.13570273151140      1.72793315149612
  O           2.59977087433377     -1.90482458804167      1.27876109734684
  C           2.32662769217440     -0.53773375580964      5.34728216558420
  H           1.80928718839531     -1.69012564224496      3.56653810282838
  H           4.32015200757508      0.03941359890992      3.45040144165804
  H           4.59734845134465     -1.78037699431018      1.67968104594244
  H           3.87060979448053     -0.28449053740384      1.05677533051112
  H           1.48768975246498      0.28938978929047      2.04708485663909
  H           0.31458204292543      1.13514967028598      1.21890576653252
  H           1.28422805016953     -2.25714939951540     -1.57718008605097
  H           2.27807121818163     -3.23104748149218     -0.65081489551429
  C           3.35444912706383      0.45478958944418      5.87398233477761
  H           2.31313781139507     -1.42321110143268      5.99116726137895
  H           1.32801243095635     -0.09174978498926      5.40851038025110
  H           4.34932249934246      0.01634720186894      5.86750938383708
  H           3.11071840193144      0.73511054949241      6.89637458654228
  H           3.36546693138140      1.35563247793153      5.26494065308146
