14
Coordinates from ORCA-job NEB E -26.842449064320
  C           1.02555485097273      1.07922043645085      0.06423593079819
  C           0.72216057043611      0.42642297605232      1.24423363882244
  H           1.83477120132537      0.66059949694577     -0.51320992525150
  H           0.94800340079697      2.15398671420966      0.03357547250611
  Cl         -0.19486047839670      1.34579171034754      2.44442712345696
  C          -0.44009658938243      0.37019555216826     -1.15193483019597
  C          -1.06931837480997     -0.64017472333839     -0.43456096252696
  C          -0.24496329231243     -1.62837644930330      0.14554122049897
  O           0.66002818031113     -0.83312057753692      1.34541657164548
  Cl         -1.37761423897740      1.75130264245087     -1.61855734200793
  H           0.27925095686358      0.10850890178511     -1.91638091760939
  H          -1.99736834313356     -0.40082079118947      0.06717752990628
  H           0.57745557741736     -2.00210795981486     -0.45422853015964
  H          -0.72300342111077     -2.39142792922747      0.74426502011696
