14
Coordinates from ORCA-job NEB_reactant E -26.877112239140
  C           2.05908510705915     -0.10165164606603     -0.04584142190720
  C           1.25687086666835     -1.15379160327178     -0.07417094325085
  H           2.84847688558316     -0.01418473623195     -0.76832249946379
  H           1.95752782813114      0.66428308637539      0.69709748712636
  Cl         -0.03838967791770     -1.29345607383513      1.09278292345733
  C          -0.86212204735827     -2.41415665901852     -3.47417059281789
  C          -0.62165413439887     -2.13001837833921     -2.20600311812917
  C           0.30669773541544     -2.93872193679108     -1.34991344964704
  O           1.43026291896172     -2.17921968324676     -0.92023182728977
  Cl         -1.92561404860119     -1.48698272346679     -4.44991932185489
  H          -0.42442265273078     -3.25643997545837     -3.98829270806400
  H          -1.07557723261703     -1.27147038503098     -1.73221077565562
  H           0.73656867449326     -3.76938742345461     -1.91207271266950
  H          -0.23541022268839     -3.32730186216418     -0.47823103983396
