18
Coordinates from ORCA-job NEB_reactant E -42.454342143390
  C           1.94136809172785     -0.13958049656828     -0.32354173784813
  C           1.59413988752119     -1.35460199850507      0.12070447184009
  C           1.85767372127737      0.31279973052204     -1.64754109411404
  H           2.30265565734518      0.59712097195832      0.37889443816817
  I           1.73604708835885     -1.80166635770042      2.17935592641411
  C           2.90789198863133     -2.10926205533704     -3.58581242666169
  C           2.46225637831820     -2.70239921403040     -2.49192483327147
  C           1.09245766324022     -2.49841109420272     -1.92083725763642
  O           1.12437740544686     -2.43247823666295     -0.50116640169203
  C           4.27617867518384     -2.36460863275014     -4.13795493662455
  H           2.33184984959432     -1.39411411167386     -4.15343552693999
  H           3.08482422243872     -3.39952374357869     -1.94481951687867
  H           0.48243371493548     -3.38481740941134     -2.12804022658067
  H           0.60396647665367     -1.61811142463052     -2.34743047936363
  N           1.79209071596798      0.73530522778734     -2.71350110104557
  F           4.96493716934423     -3.28164139054427     -3.44310492067324
  F           4.22607763682187     -2.80452331308816     -5.40586540400961
  F           5.02657365719284     -1.25278645158386     -4.15027897308263
