20
Coordinates from ORCA-job NEB_reactant E -41.362998081760
  C           1.75074702636635      0.04159831607707     -0.06357895843332
  C           1.08354669166171     -1.02443463139519      0.39066829719612
  C           2.17591867587671      0.13845423636769     -1.49451772114470
  H           2.00594014952880      0.85248646434492      0.59275841875582
  Br          0.58486642869244     -1.04570545666402      2.23947077713101
  C          -0.02072693722301     -5.36129053970988     -0.96894625494750
  C          -0.27748416552630     -4.06538938724749     -1.00860036928094
  C          -0.02207329065369     -3.13269528544603      0.13120733043050
  O           0.76577889029054     -2.05702089260725     -0.36037591845379
  C          -0.29119006948736     -6.31058778648949     -2.09014057820799
  H           0.40244421962360     -5.82981166314550     -0.09083695910293
  H          -0.68759515293318     -3.60812150456684     -1.89699496594778
  H           0.50669997422336     -3.64492335464544      0.94530779754573
  H          -0.97626006081177     -2.74329724731812      0.51532586348510
  F           3.04508814163125     -0.85261520722810     -1.83169678157875
  F           1.12431170211432      0.00535826673287     -2.34485518260683
  H           2.66552785125268      1.09737871361368     -1.72014642809839
  F          -0.90503397601139     -5.69911172715706     -3.15037955390780
  H          -0.95510794004069     -7.12090133406183     -1.76298140133228
  H           0.64470184142563     -6.74116997945398     -2.46848741150126
