22
Coordinates from ORCA-job NEB E -49.089217252500
  C           0.17072813906347     -0.02352268595668     -1.20864257654906
  C           1.38558662037659      0.23884901904560     -0.47789309345015
  C          -0.22106401872771      0.89399135439779     -2.16613162569950
  H           0.07896799442409     -1.05450239543171     -1.53066218593761
  N           2.49216567224123     -0.30954990347068     -0.93524571359455
  C          -0.78800284538282     -0.78479552336179      1.79446582007364
  C          -0.87638177844087      0.37825115911970      1.16000018935580
  C           0.22371538574302      1.40155240497790      1.20254987249790
  O           1.45292785838222      0.91763860530547      0.63552458007902
  C          -1.86307539707992     -1.82667419546746      1.77144841898964
  H           0.10228264014553     -1.08915086002952      2.32574665639471
  H          -1.78072825900022      0.64771736880756      0.63700891877179
  H           0.48844038908527      1.65398708229041      2.23286867377994
  H          -0.07214879222135      2.30715964648301      0.66750711416083
  Cl          1.49753428130146      0.67382893794419     -3.68108048402516
  Cl         -1.55930260934402      0.52477671885041     -3.16801968403908
  Cl         -0.04040514801999      2.58555116980229     -1.86823140656779
  H           2.48109676167761     -0.47112960916144     -1.94915154900574
  H           3.37345247592807     -0.14863965021242     -0.46760449742574
  F          -2.92328685343100     -1.45624413807869      1.02235812706743
  F          -1.38751801156718     -2.97879644903326      1.22337188352560
  H          -2.23498450515349     -2.08029805682068      2.77981256159809
