22
Coordinates from ORCA-job NEB_reactant E -49.132269369770
  C           1.38697587602491     -0.50523784121074      0.09294972750479
  C           2.14227590067253     -1.32954672965272      0.85851848466623
  C           1.91223763760391      0.19790095244658     -1.07871785298967
  H           0.35337105523640     -0.32690414188854      0.32064698895776
  N           3.44608970165736     -1.62465017867694      0.61776314258436
  C          -0.69126312271936     -2.68344576242119      4.41926502033230
  C           0.07667199781142     -2.93479339906766      3.37324711600317
  C           0.30887334871418     -1.97514100478651      2.25094620838604
  O           1.69007767607853     -2.00669649947865      1.93717162341677
  C          -0.94147853007671     -3.66783188143421      5.52141258632782
  H          -1.22423439833639     -1.75174177337317      4.54016133744069
  H           0.59411702308852     -3.87903418786787      3.27992411384728
  H           0.00071054135053     -0.96059127889568      2.53165834210459
  H          -0.27579785705988     -2.29529760030908      1.37606088016561
  Cl          2.54674172276243     -0.92469178374488     -2.34217964215503
  Cl          0.67028371649564      1.20431948579247     -1.82668584721475
  Cl          3.30740646534168      1.29324195776108     -0.66267358772461
  H           3.92662500500045     -2.11517310962648      1.35309932049042
  H           3.98452908234727     -0.98340244998357      0.05994472785520
  F          -2.27449550504045     -3.89877148693733      5.65934861570202
  F          -0.37114379631903     -4.86949239763880      5.27936825357059
  H          -0.57297354063392     -3.31271888900612      6.49987044072842
