22
Coordinates from ORCA-job NEB_product E -49.149236787730
  C           1.32596425402356     -1.32778106610568      1.73315987975279
  C           2.65048945601729     -1.26137687725947      2.54502900996420
  C           1.42401125045032     -1.76829332209659      0.27929445121312
  H           0.99144123264854     -0.28213437290637      1.68908337057939
  N           3.76641492362335     -1.75450863117540      1.99849992442943
  C           0.28121341521351     -2.02210218564602      2.65343274280267
  C          -1.14701571576925     -1.71646431524975      2.28064889260912
  C          -1.72695803185412     -0.56343836409605      2.55561801907085
  O           2.62239747194615     -0.73403280036296      3.63347916115639
  C           0.45980411655180     -3.52996973191190      2.82942508591012
  H           0.48766504740678     -1.57599957632251      3.63569254710372
  H          -1.68730970770341     -2.50060388266636      1.77111791659790
  H          -1.20358371967769      0.22817780241862      3.06663055194386
  H          -2.74597445536009     -0.36374828625992      2.27616740339404
  Cl          2.08549665219583     -3.39434229301458     -0.01075828274495
  Cl         -0.16752217347757     -1.68547667459754     -0.52168268281884
  Cl          2.48906497762583     -0.59756478371395     -0.57344414910253
  H           4.59574904601270     -1.73837770746684      2.57064573237233
  H           3.77323346484676     -2.31313358820051      1.16229261429596
  F           0.01769547523742     -4.23938130651376      1.76386156057501
  F           1.75974268093357     -3.87012279153528      3.00110071554406
  H          -0.09781966089128     -3.89312524531718      3.70770553535135
