17
Coordinates from ORCA-job NEB E -28.526035137200
  C           0.81552857697884      1.07183707718247     -0.77158685830796
  C          -0.17578900933958      0.75025904720136     -1.68624040237173
  I           2.85065621985516      0.79944511346096     -1.20353665201178
  H           0.65341068830406      2.00243982015160     -0.24477606808294
  I           0.22606177585311     -0.78483573797765     -3.15999850219309
  C           0.18365682330608     -0.08146283056571      0.89961599429556
  C          -1.04734403949944     -0.56757167181428      0.48196279368222
  C          -2.05034355933374      0.31226313024796      0.07781849297275
  O          -1.37715948421856      0.99956879157156     -1.45728910938147
  C           1.28372617943981     -1.04181896427313      1.22388070094975
  H           0.17775560692976      0.82187048037986      1.49775217343044
  H          -1.08434989571077     -1.58226267682193      0.10344641213124
  H          -2.13923791613271      1.26919076004975      0.57411823519981
  H          -2.97848509928604     -0.08396527866916     -0.30531288360409
  H           2.22641520753938     -0.53257608978077      1.40466005074799
  H           1.41794666530738     -1.77399233651668      0.43021754485699
  H           1.01755126000727     -1.57838863382619      2.13526807768632
