17
Coordinates from ORCA-job NEB_product E -28.575179793910
  C           1.94031418296160     -1.26522372399975      1.75539126414961
  C           1.77471276029509     -1.91915439222641      0.41459509261376
  I           3.88512105620396     -0.40175502192286      2.08360073648478
  H           1.24476400686151     -0.41929216095288      1.75924987027136
  I           3.46243625334277     -2.95870620562609     -0.43021982613013
  C           1.52821573498594     -2.20412652765429      2.91563651462064
  C           0.06538040572049     -2.52484895194477      2.77380814571174
  C          -0.87699146879110     -1.99614502336390      3.53073215904505
  O           0.75086270634721     -1.91929629547897     -0.18280739308256
  C           2.35462757973845     -3.48296064264802      3.00094409753188
  H           1.67080250153256     -1.62828723877046      3.83723221879120
  H          -0.18769372228986     -3.23137120824049      1.99498848911422
  H          -0.65051739883482     -1.29035316164265      4.31382294066209
  H          -1.91450849558189     -2.25179554865524      3.40503612542585
  H           3.42081830713307     -3.26389982165595      3.01586316560897
  H           2.14339456735345     -4.14952372678690      2.16727372111884
  H           2.10426102302160     -4.00786034843034      3.92025267806270
