17
Coordinates from ORCA-job NEB_reactant E -28.559963538460
  C           2.35044763600330     -0.19383946610040      1.05402791264215
  C           1.36319714470597     -1.08107758513786      0.97690203738618
  I           3.98922442494573     -0.09540841966658     -0.22663597813831
  H           2.31914200486420      0.57316873533454      1.81026696436789
  I           1.37415659947273     -2.62483711336556     -0.48542005253652
  C           1.58538420546966     -2.89054907136806      3.50376452894822
  C           0.42493835557192     -3.13351906852857      2.91705106072596
  C          -0.40776715681876     -2.11525098675580      2.19427650063024
  O           0.30112980498878     -0.95803478987438      1.78026465175124
  C           2.40932316671483     -3.91917881307693      4.19717274353062
  H           2.00006818533245     -1.89025716877840      3.49892105339586
  H          -0.00018535506676     -4.12742634404940      2.92529223046087
  H          -1.19600456935674     -1.72533861932781      2.84732958654735
  H          -0.88936155114014     -2.58234351005513      1.32321791521928
  H           3.38639117685354     -3.99785890451131      3.72123319515517
  H           1.92524474979100     -4.89181920604142      4.17127725361042
  H           2.57167117766829     -3.62952966869692      5.23475839630336
