25
Coordinates from ORCA-job NEB E -36.379601233600
  C          -0.24842451960029      0.84767027097721      0.75517107713889
  C          -1.08196913618992     -0.25603300697523      0.79267844807726
  C          -0.75393278534403      2.15917901743886      0.22053118664974
  H           0.45789213718372      0.91313224090886      1.57301264264697
  O          -0.75734356812499     -1.20746868775472      1.72049106948602
  C           0.95509680249422      0.15442238860977     -0.91751200432741
  C           0.27368299231196     -0.95191569252885     -1.39980288360341
  C          -1.09573216814836     -0.82376210722337     -1.68471063965284
  O          -1.89597141318554     -0.55596261005681     -0.14842482048653
  O           2.20453787089844     -0.02919372440053     -0.42679455665651
  H           0.76810692647804      1.11960857179111     -1.37727937821122
  H           0.65418040381478     -1.91945936635283     -1.10175726506116
  H          -1.63262580796585     -1.70173951742922     -2.01392566640479
  H          -1.42331656521705      0.08938480564804     -2.16452612805135
  H          -1.44594390411296      1.99738962000475     -0.60158475116908
  H           0.05815046226571      2.80454648824128     -0.10955838166919
  H          -1.28964243841252      2.68539968325707      1.01255326555850
  C          -1.42531253313394     -2.44789129723134      1.60944745904842
  H          -1.10254909180199     -3.03759559986361      2.46455235262351
  H          -1.15729283575696     -2.95852204680077      0.68135464358048
  H          -2.50946133345582     -2.30854103883320      1.63457325002863
  C           2.95457982244335      1.13585124796123     -0.18080725063919
  H           3.96309717828102      0.80757114832188      0.06365754427035
  H           2.54394830813004      1.70044096640843      0.66230595811830
  H           2.98624519614894      1.78348824588198     -1.06364517129437
