25
Coordinates from ORCA-job NEB_product E -36.440190755590
  C           2.72846108339938     -0.33610098427458     -0.74672826013813
  C           2.36389076680718     -1.76809554439602     -0.39757827933308
  C           1.51305497700279      0.40784066943278     -1.29127540409947
  H           3.10195420738537      0.13635843074587      0.16519904466638
  O           2.73151719227953     -2.06132278159758      0.85003233328989
  C           3.88521303962516     -0.36319774895147     -1.77123715871738
  C           3.44004304485619     -0.90026665630168     -3.10318862728726
  C           3.49934195644711     -0.21160783034809     -4.22717534997910
  O           1.80774141515460     -2.54518909261794     -1.12824060939413
  O           4.90645036510279     -1.16428867003900     -1.19492196497663
  H           4.26151528587497      0.66749904704866     -1.90115158779112
  H           3.07049563938637     -1.91499087603345     -3.08085239797232
  H           3.17473276028579     -0.62572620836350     -5.16648208841949
  H           3.86865777074885      0.80175579962473     -4.25542415347103
  H           1.07774320986202     -0.14774885055068     -2.11792752653935
  H           1.80203339124439      1.39465472016958     -1.64472456459375
  H           0.76239859237862      0.52062382218132     -0.51283611397715
  C           2.49348462407208     -3.39523590773533      1.27763869107328
  H           2.80786504709578     -3.44372557778871      2.31684336293626
  H           3.07177826285016     -4.09326182883734      0.66955510381833
  H           1.43327064984763     -3.63998943506205      1.18327587945284
  C           6.12254154360724     -1.11857331586240     -1.89564775170171
  H           6.82044177431605     -1.74023655343939     -1.33846507747860
  H           6.50843492494737     -0.09235947273078     -1.94838288045637
  H           6.01773847542257     -1.50691515427296     -2.91500461891092
