22
Coordinates from ORCA-job NEB E -51.827011966460
  C           0.08210443369817      1.34613827352619     -0.37977099924204
  C          -0.17230610533656      0.93083508017879      1.01469478885707
  N          -0.97482690909286      2.34145647352495     -0.89140637041317
  H           1.03650774683202      1.86319545061284     -0.48400049809145
  C           0.86649419210159      1.11928907663333      2.06348414151635
  C          -0.03211111294179      0.11499648713356     -1.23731910296871
  C          -0.96173337629148     -0.77790006102626     -0.93880144365630
  C          -1.82003229885865     -0.61427389524801      0.27330158725835
  O          -1.16030148464688      0.10557452136985      1.31278865776529
  C           1.70950657864614     -2.89621021958999     -0.94537969880423
  H           0.62851156390092     -0.01198925688107     -2.08187956637348
  H          -1.07937847849957     -1.69946207250487     -1.48583276317549
  H          -2.08105787793459     -1.57805976897359      0.72533516944739
  H          -2.75385218655761     -0.08857856085126      0.01048230463072
  O          -0.55078970697081      3.33646992696818     -1.40273957472824
  O          -2.12475850935649      2.02592532133829     -0.75613235301089
  F           1.06623876929615      2.45908340130092      2.32183887138889
  H           1.83547418804141      0.72837990965289      1.71796917262103
  H           0.57451719556426      0.64045942024779      3.00197087587620
  Cl          2.43885015139132     -1.63052189641472     -0.00108338318355
  Cl          0.58723219672408     -3.86684641990536     -0.03518979969801
  Cl          2.88571103029124     -3.84796119109249     -1.80233001601573
