22
Coordinates from ORCA-job NEB_reactant E -51.917827177320
  C           1.90010704256311     -0.80667452056106     -0.29712090300060
  C           1.51273972814439     -1.12969833709152      0.95265084887066
  N           1.40055962723206     -1.27170055976185     -1.53406869504610
  H           2.69970987516155     -0.08986431921260     -0.41447505248751
  C           2.10693305325446     -0.37094759318267      2.12156623796949
  C           1.51105085323341     -4.39354070872444     -1.17832807530749
  C           1.47491158577977     -3.91758112361895      0.05641895483923
  C           0.29883320574047     -3.18613647992446      0.62734753307122
  O           0.70265460600557     -2.07620986893679      1.42431380861805
  C           2.64566075733349     -5.13907565585613     -1.78162827594598
  H           0.67381346519078     -4.26317902253161     -1.85113996581018
  H           2.31553709930713     -4.03798331462480      0.72619208398103
  H          -0.23293894636738     -3.83041631866327      1.33486836041685
  H          -0.38640506565128     -2.86899987224696     -0.16711111623530
  O           2.17534874630423     -1.28677004254232     -2.46786945763506
  O           0.22378560156695     -1.58622767342649     -1.61536345343756
  F           2.71972480963525      0.77960971514987      1.72991498886042
  H           2.85796446701245     -0.98485528147814      2.63301125326909
  H           1.31063373905046     -0.10596646038740      2.82529587825441
  Cl          2.09526890513924     -6.79139698016944     -2.19207022863807
  Cl          3.15880672452404     -4.31702027726955     -3.28470270203733
  Cl          4.04830011983985     -5.27716530493942     -0.71370202256929
