21
Coordinates from ORCA-job NEB E -41.817118989800
  C           0.26008615933447     -0.00794404945548     -1.08463031532030
  C           0.14540726385341      1.37953739965192     -1.18931257941047
  O           1.48589889608267     -0.56354979602207     -0.93212637843429
  H          -0.47911993687555     -0.59810348228418     -1.62130719663562
  F          -1.10285690311823      1.75508320211067     -1.65787399847055
  C          -0.44460901518337     -0.04740038474729      0.92620132915120
  C          -0.60365722572384      1.26413778860028      1.34181321750226
  C           0.49282355695412      2.12922167190818      1.23736376342366
  O           0.75034461854829      2.24068122274300     -0.52637761680001
  C          -1.63952188826005     -0.95967922869379      0.88612892868513
  H           0.47823708096954     -0.55589948259494      1.17552940831348
  H          -1.59897144796738      1.68902683312266      1.31790919589515
  H           1.47638745167644      1.73473922448926      1.45232547379919
  H           0.35960856996620      3.17297240731445      1.47702555479406
  C           1.57463859739639     -1.94357561238165     -1.23303059580663
  H           2.61622115136137     -2.21706152064161     -1.07893837885700
  H           1.29603166455883     -2.13582072502054     -2.27289119200472
  H           0.93650841491903     -2.53996792744940     -0.57561928811501
  F          -2.62010065090556     -0.48614881422681      0.08564911138172
  F          -1.30424236940155     -2.18042891071528      0.38748512969274
  H          -2.07911398818523     -1.12981981570737      1.88467642721600
