21
Coordinates from ORCA-job NEB_product E -41.867885089420
  C           0.34618912619958     -0.61646220932454      1.47706774654594
  C           0.96998540553110      0.61875891046035      0.85459476705129
  O           1.29798496413220     -1.62857635352927      1.64938921385835
  H          -0.48751640007723     -0.94411353771473      0.83277388098970
  F           0.03104422195256      1.34355311430755      0.17544655181069
  C          -0.18666510222548     -0.23914001340512      2.88356520837589
  C          -0.78263930931226      1.14109618909857      2.91258416823146
  C          -0.25615904707670      2.14952894927373      3.58007856787592
  O           2.08461327738038      0.99267453893750      0.87894141022391
  C          -1.24020721596435     -1.25454665739894      3.33702529361516
  H           0.66378764145387     -0.31278633743339      3.56786791096953
  H          -1.68762732994515      1.26480844552812      2.33354463161225
  H           0.64993665868036      2.04184910184209      4.15323711191095
  H          -0.70677166948676      3.12627447245366      3.57170895843316
  C           1.67435077760920     -2.28379703485783      0.45852812698587
  H           2.36239727330722     -3.06981729061898      0.75956904035083
  H           2.17808269337426     -1.60325596630151     -0.23559440840251
  H           0.80398188418500     -2.72890830554151     -0.03707751786971
  F          -2.26710581067096     -1.31140088335316      2.45198013589092
  F          -0.74405102548885     -2.50565191948391      3.41455185855580
  H          -1.66231101355798     -0.99438721293869      4.32071734298458
