21
Coordinates from ORCA-job NEB_reactant E -41.848092462010
  C           1.14913194117211     -0.30280469235224      0.03329123093672
  C           0.98428535586958      0.79766066558058      0.76203850840740
  O           1.60813223515313     -1.46574356374229      0.56692024768314
  H           0.91994322664565     -0.27783091228427     -1.02411806099233
  F           0.42792616620608      1.88700556819953      0.14966584506998
  C          -1.08102247192590     -0.02543564951759      4.41284738347371
  C          -0.69873414837755      0.33035665161246      3.19854114024313
  C           0.26795235955431      1.43434687876990      2.91075088910767
  O           1.31754389526588      0.99789996433309      2.04255747560426
  C          -2.05228667507357     -1.13239648061990      4.68814651659701
  H          -0.73339477544271      0.47893232503713      5.30232185863394
  H          -1.07001229678949     -0.19852384351492      2.33042002283698
  H           0.77043394734027      1.77299179297968      3.81795543880480
  H          -0.26197546726301      2.28119172941131      2.45279181067546
  C           2.05767815859034     -2.41424076454544     -0.37446537455444
  H           2.30808272115204     -3.30833986785904      0.19277106764948
  H           2.94745293040878     -2.05842931255412     -0.90369289694930
  H           1.27660007774297     -2.65202872617400     -1.10418478892046
  F          -3.07771484233414     -0.68837500803370      5.46465868473104
  F          -2.61687714969179     -1.61942176620768      3.55947441965194
  H          -1.58824518820298     -1.98031498851850      5.22230858130985
