25
Coordinates from ORCA-job NEB E -50.822495815540
  C           0.51550795038265     -1.00987919893147      0.36696841811199
  C          -0.79089708435881     -0.85345475191510     -0.20703769587064
  N           0.53408759178083     -1.84128637360425      1.56127200184404
  H           1.27529439971505     -1.37905914747223     -0.31876166226062
  C          -1.01987216849848     -1.10585296995293     -1.67145332817123
  C           0.97622668792513      0.64754356105001      1.04147495627856
  C          -0.13602780659951      1.51438801102374      0.91379113573692
  C          -1.34934923311789      0.96294231421349      1.42605866285031
  O          -1.71487501741663     -0.26303079741960      0.45160451992552
  C           2.26713678047976      1.06501518432509      0.37992054479793
  H           1.15729421055160      0.34146378465788      2.07208349149346
  H          -0.19871000216576      2.14009514472893      0.03387684976529
  H          -2.24321440798593      1.56815178489229      1.32941852168963
  H          -1.27140685846462      0.47663832462522      2.39585276718696
  O           1.25132020776318     -2.81526460978796      1.50690237017984
  O          -0.17831117496182     -1.54488336087290      2.49557955384385
  C          -1.30889123349810      0.19399394314573     -2.42684684444229
  H          -1.88907930528417     -1.76207249684423     -1.76556583683120
  H          -0.15673581402265     -1.61330765001677     -2.09983030023024
  H          -2.14532332166359      0.71554647344849     -1.96935205006507
  H          -1.56162757847224     -0.03253573879401     -3.45857349269609
  H          -0.43734624297897      0.84214793142668     -2.41734539811754
  Cl          2.06085405755231      1.28662467937066     -1.36593901223022
  Cl          2.81273763738100      2.61205946030197      1.08026890004853
  Cl          3.55120772595766     -0.14598350159873      0.64563292716231
