25
Coordinates from ORCA-job NEB_product E -50.868838810850
  C           2.88622969631452      2.05581792617079     -0.23275985751772
  C           1.47648696097589      2.31208132132793     -0.83472747103382
  N           2.77763365445786      0.75578538032047      0.49491007815425
  H           3.58337507808096      1.87391862580135     -1.05660344460765
  C           1.27970584488445      1.69179344943818     -2.18865466418126
  C           3.44034747872907      3.15399981911541      0.69336288913025
  C           2.40725985427363      3.82831416090283      1.56423650719522
  C           2.24007463837272      3.52837607091925      2.83759475689919
  O           0.62831541696628      2.89462605358227     -0.22469268915427
  C           4.18429270924934      4.20815641551151     -0.12753764992646
  H           4.17740619831274      2.67707475410168      1.35264585651210
  H           1.80746006858777      4.58685255904961      1.08622257087398
  H           1.49402025157186      4.02523265435984      3.43172834391252
  H           2.81844448235798      2.76245004392212      3.32598034840162
  O           2.54442424995442     -0.20762220628373     -0.19369299668396
  O           2.92414204809513      0.74837752583872      1.68573014425116
  C           2.05076729125432      2.41373366940264     -3.29551366069359
  H           0.21295464361097      1.72070511019046     -2.41515965530862
  H           1.60553659471828      0.64980719638966     -2.13532381452138
  H           1.73162475792157      3.44999068852137     -3.36645248447563
  H           1.85086693475152      1.92602866827954     -4.24558531722968
  H           3.12401713299804      2.39322381123613     -3.12422026661213
  Cl          3.10551183006844      4.99964400648255     -1.29446636846454
  Cl          4.85400298825983      5.44553753963016      0.95928810327582
  Cl          5.54329919523240      3.48069475578924     -1.03300925819538
