19
Coordinates from ORCA-job NEB E -39.391773605170
  C           0.28294311236566     -0.72535306267236      0.91537338030542
  C          -1.00736364982249     -1.23748237247916      0.60159313285520
  C           0.34140243063232      0.26337493043721      1.94416424167784
  H           1.09093037043856     -1.45254790632055      0.98051095660054
  C          -1.11030255492594     -2.56458231685720      0.12737245415089
  C           0.59521467078995      0.27612853083504     -0.64698927738567
  C          -0.47746586426431      1.17863657744069     -0.63167526147381
  C          -1.80909395736403      0.62679822254924     -0.70537411947715
  O          -2.01072285171946     -0.40091838660021      0.42544888213530
  C           2.00478273590050      0.82587031331989     -0.56371157584878
  H           0.56346835799104     -0.54527863406609     -1.35999496388173
  H          -0.33814091069362      2.12775788555881     -0.13491430973327
  H          -2.00271065405724      0.03207883791192     -1.60035711481664
  H          -2.60588590685318      1.34369157303785     -0.53193053193005
  N           0.33905970222880      1.02753277150897      2.79372402516370
  N          -1.20029603398322     -3.65874299462046     -0.21171778138045
  F           2.13466685621900      1.78709945574390      0.37040481374133
  F           2.88277246845861     -0.15501721206097     -0.24180571773874
  H           2.32674167865905      1.25095378733347     -1.53012123296393
