19
Coordinates from ORCA-job NEB_product E -39.424172476480
  C           2.98728821567447      0.46015566352949     -1.70385554913795
  C           1.78497235742098     -0.43317051714369     -2.01357710923152
  C           2.90603460795460      0.88757760672243     -0.32150649091644
  H           3.88987578725697     -0.16190301944909     -1.80669330977748
  C           1.63434338551126     -1.49361243472391     -1.03202359946840
  C           3.05330682323160      1.64910637991786     -2.69043704066928
  C           2.08606301434638      2.73710838379130     -2.30979582093778
  C           1.01175313284671      3.03079813031738     -3.01578029781472
  O           1.05973580735292     -0.29304589144558     -2.95764477896318
  C           4.47867061263005      2.20001324721439     -2.75211269854390
  H           2.80894913404250      1.26739734437973     -3.68851326172297
  H           2.32206981577149      3.26184027641702     -1.39388212089194
  H           0.76219497529793      2.50166009253479     -3.92065744109134
  H           0.33193725357807      3.80558111250935     -2.70815413789216
  N           2.82067338068638      1.22421380586291      0.76524374277624
  N           1.52404592963370     -2.32618539428633     -0.25587513944112
  F           4.92588276350804      2.57160857019006     -1.53282185745821
  F           5.33468095232281      1.24061711766673     -3.18982516709884
  H           4.56582205093313      3.06533952599516     -3.42588792171903
