19
Coordinates from ORCA-job NEB_reactant E -39.426809148010
  C           1.68759428321686     -0.06815568779101     -0.11537913255437
  C           1.41797583742991     -0.48845746178160     -1.37427572467969
  C           1.92336586322612      1.24265255480462      0.31924199257965
  H           1.72745880154022     -0.81374056813546      0.66802872938140
  C           1.21080182242859     -1.89281068337027     -1.54037166029068
  C           3.55526613742667      2.61215273157111     -3.59385837225696
  C           2.99696900766459      1.88339335100993     -2.64324992607757
  C           1.53042528078505      1.58142995646582     -2.58377151871528
  O           1.28409698121100      0.18497343006134     -2.52471905808668
  C           5.02207039369092      2.91656924876792     -3.65232451269570
  H           2.98324818294042      3.06761452743774     -4.38875164999540
  H           3.60535963928901      1.45580179540351     -1.85777953893621
  H           1.03094153849393      1.91104970238276     -3.49797133058433
  H           1.07753183721737      2.08883101460961     -1.72346714672529
  N           2.11974286590664      2.29684861890266      0.73128371358436
  N           1.05266725038020     -3.02197246269754     -1.63508351999626
  F           5.23090410642282      4.25838443678725     -3.64932550311049
  F           5.69349374951716      2.42023298964299     -2.58957159573488
  H           5.49808642121252      2.51670250592864     -4.56535424510565
