20
Coordinates from ORCA-job NEB E -44.865569338720
  C           0.14420596405092     -0.85409856984677     -0.41280013539033
  C          -1.31836964950008     -0.65660929892669     -0.12668162135562
  O           0.72577332010167     -1.66574329893655      0.57064472233442
  H           0.20569086535769     -1.37553542499835     -1.38804391998980
  N          -2.10889358508497     -1.78908814905032     -0.09585072440785
  C           0.92620893685741      0.47560113863500     -0.53117239865397
  C           0.15136586002943      1.66708577905393     -0.13890732034070
  C          -1.23215448566160      1.64674867494752      0.31121846539582
  O          -1.95580346488776      0.47261384253428      0.17179946371548
  C           2.26470425708579      0.45495389809621      0.25368241543452
  H           1.24797084891686      0.57665649294757     -1.58080623022640
  H           0.65414454791393      2.61809358503019     -0.11946897401212
  H          -1.82558510697361      2.42889183769397     -0.18481135685053
  H          -1.26433575009337      1.89693873290091      1.38568778407038
  H           0.28233199705233     -2.53044239479335      0.53087526689793
  O          -3.30777613150614     -1.67605021132076      0.13222951320409
  O          -1.52994789588298     -2.86964772349688     -0.29986901115659
  F           2.06802781409204      0.35573642918776      1.58017156435402
  F           3.04865074649237     -0.56603421326619     -0.13215803312327
  H           2.82379091164009      1.38992887360854      0.07426053010052
