23
Coordinates from ORCA-job P E -35.441906693170
  C          -1.04879691622333      0.72575066031984     -1.94994782689426
  C          -0.63498605299437     -1.82686295288253     -0.43930014191946
  C          -1.04366588388898     -1.76524746080490     -1.87745898000429
  C          -1.22017700656395     -0.64229725400717     -2.55186246961299
  C          -1.10888668682149      0.64299287106558     -0.41951538675349
  C          -0.17969846917579     -0.46468293143137      0.08439402771590
  H          -1.19299468896000     -2.72033004587862     -2.36149581905920
  H          -1.50788264548445     -0.65075828490323     -3.59352002714833
  O          -1.99157240469730      1.64582397564579     -2.46095977893778
  H          -1.47678685512613     -2.19295144176914      0.15679872950187
  H          -0.07904746114336      1.13773937746746     -2.26024823633014
  H           0.18033934998868     -2.54644132639420     -0.33445711775337
  H          -2.13383905725108      0.41079847618099     -0.11694034104990
  H          -0.18325606222734     -0.46107457322664      1.18008540532656
  H          -0.82983954730147      1.60376432452084      0.01323932033979
  C           1.25230709099575     -0.18545831726188     -0.34306071847179
  H          -2.87661022716863      1.30806089203011     -2.28123951910293
  O           1.96314951847026     -0.94301221370072     -0.94716821004219
  O           1.64821971247904      1.02526153118571      0.06879812909800
  C           2.97410987517061      1.40142461280694     -0.27701953896450
  H           3.14196654894967      2.37524013640090      0.17534450876476
  H           3.08042347724346      1.45943845441842     -1.36211738781772
  H           3.68803439173019      0.66964149021782      0.10619137911546
