23
Coordinates from ORCA-job R E -35.354767761440
  C          -0.93786220274761      0.46649816167640     -2.82960069304445
  C           0.68956503373868     -1.92314254279493     -1.93978114821905
  C          -0.57614467926175     -1.65888300661702     -1.62938610555854
  C          -1.40199982748487     -0.62128853790027     -2.21438714765957
  C          -1.41981742048328      1.26392536685403      0.55667342337645
  C          -0.69353110030812      0.27134921021456      1.04792573122294
  H          -1.07620189589326     -2.26652460762305     -0.88541155871478
  H          -2.47414692418439     -0.75233366529011     -2.11694134082139
  O          -1.69623976600950      1.44651782685341     -3.37015722742386
  H           1.23142157259513     -2.70945591413600     -1.44338797610441
  H           0.11430805078420      0.68608587072251     -2.92355382507609
  H           1.22329495236561     -1.38164976366199     -2.70323035305078
  H          -2.45389152119560      1.39770897076536      0.83157912970662
  H          -1.09286714052378     -0.44183343163886      1.75519549227489
  H          -1.00179279865791      1.96917908469308     -0.14113585890222
  C           0.73050387859573      0.05045955347761      0.71655782313020
  H          -2.63222505131510      1.21987735111682     -3.28991612451480
  O           1.40403976312912     -0.82973922067928      1.19434859296418
  O           1.21082663043382      0.94910275493195     -0.15583389407157
  C           2.57453877713640      0.79050137715718     -0.50740253746356
  H           2.80399931499359      1.58630388894735     -1.21183074715891
  H           2.73749996635068     -0.18886251052369     -0.96245352056173
  H           3.20985238794219      0.86984378345495      0.37795986567043
