23
Coordinates from ORCA-job TS E -35.345556765250
  C          -1.33482795055844      0.48803024510153     -1.50904173032168
  C           0.12891170790666     -1.74625504736789     -0.42193979741956
  C          -1.15365619916447     -1.84736267082729     -0.84624307909156
  C          -1.86362434076021     -0.76794081176149     -1.41047640243341
  C          -1.09845897235129      0.84235202998206      0.68734425795227
  C          -0.33315979156379     -0.13814055225482      1.24658204764664
  H          -1.72338785852424     -2.73322352392456     -0.60117943426400
  H          -2.92566034897735     -0.89530073632466     -1.58508012105640
  O          -2.03300792460563      1.55737110360750     -1.95314319549679
  H           0.59688809166679     -2.55815659085481      0.10848424555992
  H          -0.27357238823971      0.66551341299707     -1.57622580906130
  H           0.79429903700735     -1.00381088028973     -0.82166741886368
  H          -2.16334741302960      0.84302660926224      0.84870471834579
  H          -0.78217260191767     -0.93686426795789      1.81585550078737
  H          -0.65165328272320      1.78068749248204      0.41096060781582
  C           1.11533015981378     -0.00380309379280      1.43218454446291
  H          -2.97631588007494      1.34920302064687     -1.98806856746156
  O           1.77525400324340     -0.66340424885114      2.19918984502504
  O           1.65399121327599      0.96095856699229      0.65320957454615
  C           3.04941547044126      1.16030546278337      0.80309588857171
  H           3.32121785732081      1.95026573029474      0.10716424168237
  H           3.59317386291205      0.24126643878520      0.57230861750750
  H           3.28436354890244      1.45528231127215      1.82798146556646
