20
Coordinates from ORCA-job NEB E -39.828422666330
  C           0.37807895210467     -0.85231208612586     -0.80304343033941
  C          -1.01972425813885     -0.58991580295069     -0.78268185220153
  Cl          0.81329104817971     -2.56400674425576     -0.52293332010987
  H           0.90445762615782     -0.51923224535266     -1.69318344432382
  C          -1.65490033134176      0.34825151792413     -1.76082248133957
  C           1.05186741886436     -0.04740176783375      0.66880648566743
  C          -0.00166714739271      0.18988653119691      1.60297073641901
  C          -0.96197276359941     -0.89079661237127      1.64989536960566
  O          -1.68701075657123     -0.83479223648239      0.30842928172104
  C           1.86637867130110      1.15937356063602      0.28262087025698
  H           1.72576256453474     -0.85193605745506      0.97124824293751
  H          -0.42765967563621      1.18778824096222      1.62990108633214
  H          -1.77462055289015     -0.76447566555101      2.35866525322481
  H          -0.51782687247233     -1.88376651524228      1.72729461422619
  H          -2.01713432416893      1.24059852785484     -1.25037810268750
  H          -2.51855003016373     -0.13754807554481     -2.21353192099612
  H          -0.96032695010095      0.63115318473401     -2.54486562318879
  Br          2.69673614095346      1.93340179479650      1.88246370992112
  Br          3.31299604934760      0.70104240439102     -0.95106831412920
  Br          0.79182519103280      2.54468804666992     -0.55978716099608
