20
Coordinates from ORCA-job NEB_product E -39.880142466540
  C           2.87332517567750      1.81879650206534      0.68731878069947
  C           1.53782359885593      2.53107160729778      0.43012529924790
  Cl          2.40336405343400      0.08690173902133      0.79177342039835
  H           3.53209787447524      1.89737622417168     -0.18205217569330
  C           1.30705930865907      2.85019194376460     -1.01697039475175
  C           3.63270294544238      2.19275070864962      1.97192887493320
  C           2.73936514128913      2.26059627317388      3.18088797242685
  C           2.69740293060853      1.30484582552882      4.08929660402685
  O           0.74430942292339      2.74265323752142      1.30440866252739
  C           4.39576139404506      3.49949629444822      1.80436776111541
  H           4.38491703546026      1.40770914431944      2.13760725078857
  H           2.10879218269303      3.13381944210464      3.26357803209729
  H           2.04059825606724      1.37088657723769      4.93802192951634
  H           3.30602277410896      0.41784156237843      4.01855558463727
  H           2.04962111018484      3.56851191782679     -1.36029973312952
  H           0.31317713762611      3.26786458745378     -1.14935755853079
  H           1.41122275469591      1.94521329511432     -1.61230874095483
  Br          5.31863929942791      3.93700718507048      3.46822792460923
  Br          5.76075492441179      3.34890086164796      0.40560161397968
  Br          3.24724267991374      5.00066507120378      1.33728889205638
