23
Coordinates from ORCA-job NEB_product E -36.741039659430
  C           2.87398241944678      2.86012478526019     -0.06211767569179
  C           1.72422161288060      3.32094034764771     -0.95690892430918
  F           3.05189812145846      1.49847911184803     -0.18217700104053
  H           3.81288165760196      3.32837656256381     -0.38487211062101
  C           0.81778762113786      2.22641400664627     -1.44279742010425
  C           2.59332697245768      3.19814916800329      1.41723808517146
  C           3.61978914451960      2.53198149568914      2.29016052094643
  C           3.32807991369326      1.66538722988133      3.23973479090719
  O           1.57938657112136      4.49069854301206     -1.20762251217855
  C           2.62180192525254      4.71442642488520      1.62886485441272
  H           1.59755606649381      2.82782558675693      1.68419808049926
  H           4.64436757520907      2.81710335045492      2.09189419016313
  H           2.31313820000603      1.37146322432866      3.44963476182775
  H           4.09159525549644      1.21755721931486      3.85130863596916
  C          -0.38739336817866      2.76501504109274     -2.19918689787600
  H           0.51190455871179      1.62752078822091     -0.58108889331614
  H           1.41496002150020      1.56775003426070     -2.08018944482027
  H          -0.98704960269701      3.39976547742440     -1.55174532009008
  H          -1.00456000902542      1.94659747198077     -2.55935563377477
  H          -0.06205962524259      3.36172867949628     -3.04723385040528
  F           2.17189375254765      5.00749700768666      2.89061253923342
  H           1.96585897921320      5.23643493656860      0.92626772820624
  H           3.64103223639538      5.10786350697656      1.55538149689107
