17
Coordinates from ORCA-job NEB E -38.830640660900
  C           1.02383529809476      0.15889055823990     -0.58640213130318
  C           0.09097244136472      1.12506981553699     -0.93659187758369
  C           0.90000186553357     -1.22761777538351     -1.15310973501042
  H           2.06201452809710      0.46925151546485     -0.53330969769669
  F           0.53039389046163      2.41824187856272     -0.80959699670109
  C           0.41319966138830     -0.11768089120900      1.32818834688694
  C          -0.94262378704955     -0.31717577845091      1.16797941801339
  C          -1.72601618998528      0.74927542659630      0.63255635381924
  O          -1.16388076643066      0.96269182307846     -0.89173037196430
  H           1.03347672304021     -0.94136907797783      1.64848547902678
  H           0.76587354550845      0.85414851621271      1.64570651139455
  H          -1.32376666475109     -1.32246012541256      1.07010475250437
  H          -1.55325859922415      1.73837272819968      1.04892682845789
  H          -2.77268689065980      0.54450518870352      0.44734609313804
  F           1.60402989745568     -2.12509041452465     -0.44419227568296
  F          -0.34469411041074     -1.69734943727326     -1.23338428941443
  F           1.40312915756686     -1.27170395036342     -2.40097640788444
