17
Coordinates from ORCA-job NEB_reactant E -38.858157950770
  C           1.68074250505984      0.01244711376967     -0.07377678161995
  C           1.03788041958894      0.51712364074201      0.98229018580986
  C           2.05598523681875     -1.42545192313257     -0.12838702123007
  H           1.94957035981167      0.62930507262315     -0.91015618466479
  F           0.71656711862311      1.81995389761920      0.98698617263528
  C          -0.22201579055072     -0.27831641949525      5.44511764825506
  C          -0.33580973346638     -0.50854416895930      4.15187656758652
  C          -0.03227666369079      0.50521413497469      3.09403815736163
  O           0.68054323092534     -0.16176620126751      2.04518667651237
  H          -0.47063617476255     -1.02815608581240      6.17490031749512
  H           0.11256497985096      0.67176323765337      5.82823532628459
  H          -0.66455289279648     -1.46406465494418      3.77080052726412
  H           0.57151151447071      1.32792561600151      3.49305530820120
  H          -0.96569453524061      0.91890431700692      2.68701879369591
  F           2.92782515631971     -1.78495088363245      0.83321023972907
  F           1.00350770736437     -2.25372178430397      0.00848401972872
  F           2.63338756167416     -1.73676490884290     -1.29557995304463
