17
Coordinates from ORCA-job NEB_product E -38.878609769070
  C           1.64915545219029     -0.15954777315504      1.55888955725313
  C           0.71285852244938      0.71183889992036      0.76021746150082
  C           1.65792443102401     -1.58539795050343      1.01021719371630
  H           2.66985811176358      0.22485712435000      1.44162409779134
  F           0.90897606395855      2.01150848130146      1.10459960286427
  C           1.25273219585243     -0.09756051901323      3.05532543926688
  C          -0.22051013442359     -0.30832146296104      3.26096533626336
  C          -1.03851577228197      0.64890996325988      3.65440007350276
  O          -0.09906038530656      0.42871990015830     -0.03891319664280
  H           1.82308009123557     -0.85903114581119      3.59263398191104
  H           1.53662704705553      0.88439196964580      3.43776712922659
  H          -0.59225924276166     -1.30237259989518      3.05961948610384
  H          -0.69021809828591      1.64868305143180      3.85811118251404
  H          -2.09058840698071      0.47251894179638      3.79182865795977
  F           2.49203870196601     -2.36085602557909      1.72221948058759
  F           0.47104407789050     -2.18806095013963      1.02684045748884
  F           2.10045734465456     -1.61627990480616     -0.25344594130776
