23
Coordinates from ORCA-job NEB E -55.827532714940
  C           0.64713866626361      1.05300802188590      0.22895316280255
  C           1.46911579940624      0.15225251420275     -0.57308204684782
  C           0.09356536998040      2.20465711044061     -0.16162611938921
  H           0.48197480643002      0.73312129627627      1.25324148700101
  C           2.77888279518318      0.51201612472960     -1.02901451545963
  C          -2.11637642931690     -1.03256567438861      0.84102050002006
  C          -0.88076452059149     -1.36779471569909      0.50783537485668
  C          -0.35343519520101     -1.33165276480928     -0.89283366895262
  O           1.03895804998131     -1.04296816676984     -0.96425366489492
  C          -2.64354106622846     -1.10938014650575      2.24328946325803
  H          -2.84005144705909     -0.68367615867099      0.11942424933583
  H          -0.19008191324959     -1.73581960250342      1.25537723917147
  H          -0.90913362194778     -0.61291461528735     -1.50683923541573
  H          -0.44020450741758     -2.32536863521360     -1.34456632336458
  Br         -0.83093315712707      3.28237700282641      1.08448846970712
  Br          3.20831934457006      2.23173602624740     -3.59370660110968
  Br          0.02236823185245      2.80845534875405     -1.93538534095239
  F           3.43454105067146      1.36679513404863     -0.21090768828301
  F           3.57855555119998     -0.55177712971614     -1.24516010736429
  H           2.86889100213422      1.11640027425868     -2.10394346278623
  F          -3.74271858105674     -1.90135827046482      2.29199280930086
  F          -1.74016874992626     -1.64483259954153      3.09514601968440
  H          -2.93490147855095     -0.12071037409989      2.64054999968210
