23
Coordinates from ORCA-job NEB_reactant E -55.874376082800
  C           1.28868511427230     -0.59233761584466     -0.24328797857340
  C           1.92217952035672     -1.55186676398092      0.44936061593861
  C           1.91002337979228      0.42886179363174     -1.11004713394245
  H           0.21132448008536     -0.53962905219127     -0.19123593923267
  C           3.43342802904948     -1.74410046893021      0.49289233294353
  C          -1.19820912947526     -3.55186605559639      3.32611272369627
  C          -0.40106547498556     -3.63943236065094      2.27607014879296
  C          -0.06943521820860     -2.48731482744495      1.38198744871900
  O           1.34124204602899     -2.46524083643336      1.22859961504427
  C          -1.54490154025568     -4.71807719368581      4.20236133994636
  H          -1.68586762838557     -2.63225850084097      3.61551774280880
  H           0.07307206365289     -4.57400137236327      2.01240652994177
  H          -0.42032201056913     -1.54075501121479      1.81131677770921
  H          -0.54414009822694     -2.63830478186696      0.40129330523652
  Br          0.54761828846637      1.63775358515180     -1.79968094881267
  Br          3.25022689347169      1.54120811711782     -0.17137352556195
  Br          2.80870987523924     -0.37918129283130     -2.69548381598489
  F           3.92035735123362     -1.23000470103708      1.64555208188363
  F           3.72633900917865     -3.05813354251439      0.49669240838824
  H           3.97673437407016     -1.28304324452844     -0.34345932050749
  F          -2.89260615465283     -4.82080630399714      4.33839270637267
  F          -1.12231081527280     -5.89236878700292      3.68523624129584
  H          -1.12158235486538     -4.62500078294557      5.21797664389782
