23
Coordinates from ORCA-job NEB_product E -55.870201821500
  C           1.01550842463916     -1.28300777996672      1.70218984153450
  C           2.34728453918614     -1.96178001770950      2.05464038364545
  C           1.00990844471622     -0.42030830648907      0.44807703778433
  H           0.87423180840480     -0.57471015688157      2.53518090699664
  C           3.12239008136589     -2.76421748294572      0.98557973455089
  C          -0.17749266965994     -2.27970732702630      1.80456928984823
  C          -0.45392241741394     -3.12649946597330      0.59308377375409
  C          -1.59315409019706     -3.06593883580630     -0.07229367053308
  O           2.76242645020434     -1.89477479086208      3.17357390515186
  C           0.02823036059895     -3.20188058069053      3.01767755220810
  H          -1.07807950817503     -1.69206716204623      2.02045089168892
  H           0.29852098828110     -3.85742078768311      0.33365845316800
  H          -2.37044276965552     -2.36495294586760      0.18403173264098
  H          -1.78373399516951     -3.71091204038082     -0.91111809995383
  Br         -0.69130154638022      0.54885117309942      0.35969178437764
  Br          2.43545245866158      0.92430957454553      0.60131389223690
  Br          1.21491346149455     -1.32266859228552     -1.25678745770522
  F           3.76219868998516     -1.91360154677448      0.14780950403900
  F           4.06430399076072     -3.49993519560252      1.58969107514224
  H           2.48739639910727     -3.43361189502284      0.38499107381260
  F          -1.11521671873156     -3.86410341180389      3.28191488846427
  F           0.96492895989851     -4.14313537814465      2.74628236453785
  H           0.33704865807840     -2.67382704768217      3.93289114260965
