73
Coordinates from ORCA-job A2R E -121.365763326710
  Ru          0.15455137572526      2.33569348989204     -0.15141396104429
  H           0.47834343961644      3.73246741535338      0.41845390093645
  N           1.16300015138530      1.56294632168003      1.51608268300894
  C           0.59673887628044      1.61914775951748      2.73571816740653
  C           2.37289661298828      0.98769354284303      1.40224982959916
  C           1.20103633886666      1.05990890999513      3.85275935788191
  C           3.02665803840821      0.41496802735598      2.48265767021314
  C           2.43000186548978      0.43494559979981      3.73039502065406
  H           0.70806580741744      1.12380018073319      4.81081247854951
  H           3.98683725706524     -0.05035708134264      2.33140481255252
  H           2.91312096379631     -0.01236010283606      4.58454594499837
  P          -1.63225512221036      2.28271645831868      1.27794549059407
  C          -2.82197059501119      3.75263410922756      1.44094808107775
  C          -2.60729975695126      0.65468098173747      1.45968673764050
  P           2.16819938425060      2.17617337214649     -1.00502429771151
  C           2.75171520749055      1.60597616227653     -2.71752913053966
  C           3.48875065537179      3.54503517960549     -0.87578098320659
  C          -0.69748854621183      2.35854306503639      2.87418468309369
  H          -0.45789459975633      3.42178555537205      3.00288650334981
  H          -1.26822760926521      2.01798987335215      3.74164274464810
  C           3.01754801567360      0.93809636858945      0.04702128551322
  H           4.10329829771414      1.07767092414270      0.10524009169622
  H           2.82200033890946     -0.05900371687406     -0.37907364738416
  C          -0.75987517176010      3.01747435223306     -1.60851142941925
  O          -1.34360250864524      3.42809030046809     -2.51182787907144
  H          -0.10521886541780      0.88792469981060     -0.64019580090998
  C          -3.40553905274010      3.95605536915416      2.84006267845111
  C          -2.03781729214128      5.01317009931141      1.07074703045664
  C          -3.93205634602773      3.57804576457276      0.40329435675882
  H          -2.62748595191819      4.19180251804054      3.56213488149909
  H          -4.09162803990069      4.80198444172347      2.80811506469914
  H          -3.96118931861855      3.09611580173772      3.19448798176130
  H          -1.67406255166598      4.95297728879504      0.04703431246712
  H          -2.68692635035964      5.88374075311502      1.15708857043900
  H          -1.18247799620940      5.16542158239019      1.72550812657377
  H          -3.49995250413842      3.27926798964492     -0.55294600242824
  H          -4.66473404305513      2.83711182358038      0.71236465313608
  H          -4.45546569339445      4.52233714383945      0.25872748577590
  C          -1.57820373466211     -0.41205142849032      1.84665498633385
  C          -3.71876496336417      0.64024381473551      2.50710630224972
  C          -3.17584241005267      0.29574045322768      0.08604681657704
  H          -1.24147625328431     -0.29595031619843      2.87579280542507
  H          -2.02769020658203     -1.39927472310316      1.74694447130542
  H          -0.71731543225386     -0.37097268262634      1.18000350690995
  H          -4.55365770262081      1.27351535624044      2.22292868483334
  H          -4.09808896503397     -0.37788963361960      2.59642757781145
  H          -3.35391756122573      0.94225321970405      3.48692970096640
  H          -4.02229365123018      0.92206515249327     -0.17792048145911
  H          -2.40588799519618      0.41201502755531     -0.67624260064762
  H          -3.50722166137962     -0.74173240520726      0.07860986526665
  F           4.71452314910134      3.19217920193661     -1.29617185081451
  F           3.15411838715037      4.66476780482003     -1.50986980534153
  F           3.61098992006221      3.83834661019902      0.43258858659256
  F           1.86052045358205      0.76539838397165     -3.25121326499385
  F           2.86846837560106      2.64613363658908     -3.54932495280860
  F           3.92867718015014      0.96381046190112     -2.71115256951037
  C           1.25748947285273     -2.58597096693688      0.51784161328408
  O           2.30858595417235     -1.99508296761669      0.36048054765942
  C           0.17963139562975     -2.53166900464132     -0.49247422847791
  C          -1.06760203584606     -3.13251791813181     -0.31050593882315
  C          -2.04907007133809     -2.99920395538364     -1.27305439467491
  C          -1.80782403861790     -2.26641878500979     -2.42587166094732
  C          -0.56920673254060     -1.68137853562057     -2.62684172102280
  C           0.41559073085297     -1.81900667073814     -1.66955707418386
  C           1.00490884578574     -3.38664571812994      1.77149935646630
  H          -1.27732897281652     -3.70402581736608      0.58076763633112
  H          -3.01221608525297     -3.46652932826392     -1.12473581954109
  H          -2.58633459223780     -2.15584762226061     -3.16593433325125
  H          -0.36948638448004     -1.10917752528925     -3.51913808703518
  H           1.38686890304639     -1.37551904211921     -1.82370157326694
  H           1.89076293206742     -3.35372081468933      2.40112624546964
  H           0.78100295602623     -4.42027780954982      1.51808681397472
  H           0.16219608288429     -2.96857777672075      2.31777734562647
