73
Coordinates from ORCA-job A3S E -121.345948725930
  Ru          0.48492708892798      3.72998302610007      0.11470766844012
  H           1.64999418085554      4.67684581397771      0.05532554881107
  N           1.32585007523450      2.94951053674898      1.88583050888253
  C           1.20458577289088      3.59712685593299      3.05619425119029
  C           1.97883123361170      1.74023272219137      1.85734612070237
  C           1.54297405495540      3.02795360799717      4.26350934257308
  C           2.31124844844540      1.10344318073100      3.08745323661247
  C           2.07559967678730      1.72996492352208      4.27227925683556
  H           1.42122337324048      3.58029628003540      5.18114282532915
  H           2.76577204772298      0.12635536830517      3.04427063151912
  H           2.32205143476317      1.25551467154759      5.21042755857453
  P          -0.41317535692247      5.26054006566207      1.59381133098546
  C          -0.28380565486208      7.11195892800098      1.22281591298886
  C          -2.09356453788803      4.87114948947823      2.39925474767450
  P           1.87245281891155      2.13062764385166     -0.73969933569217
  C           1.81747635089650      0.95456975509805     -2.23948815161640
  C           3.55007216070280      2.90197117631228     -1.26629112098884
  C           0.75533961865317      5.03095941689430      2.99528129513572
  H           1.63879338457791      5.63012155284003      2.74319010091663
  H           0.35545145403003      5.37752405753231      3.95072618420321
  C           2.31650421692297      1.16998792022154      0.63313669964251
  H           2.87654313181402      0.25334846177395      0.54994718139855
  H          -0.58376282477347     -0.07387096999990     -0.93580851701663
  C          -0.21089898478195      4.43490103586175     -1.44419146886512
  O          -0.62438275402305      4.89998555028003     -2.41302597214936
  H          -0.88412059214502      2.52865583451282      0.17995254178801
  C          -0.16470462072766      7.99047607799410      2.46909874644882
  C           0.97866246300149      7.30347967191098      0.37879568943538
  C          -1.48489286314302      7.53149760910215      0.37506719229549
  H           0.74244274979106      7.76615266737398      3.02445629407423
  H          -0.11067538959424      9.03254766788346      2.15619129398386
  H          -1.01507291889188      7.88997881028783      3.13386842578681
  H           0.88598724917005      6.78743175336515     -0.57599381726912
  H           1.13022050182785      8.36404511840409      0.18461781598738
  H           1.86407035770447      6.92324248553047      0.88541891088666
  H          -1.64157325034566      6.81513451355948     -0.43110238530193
  H          -2.39246449974701      7.60876420083412      0.96787419568502
  H          -1.29662143918766      8.50617062184958     -0.07211331054268
  C          -1.89105581373865      3.53013255698278      3.11320531456390
  C          -2.61870050678634      5.87593481203542      3.42030767294775
  C          -3.11229001022359      4.69604157784450      1.27048734556956
  H          -1.35164276630722      3.65704493092413      4.04901842835262
  H          -2.85314325554073      3.07315267486599      3.34198852210684
  H          -1.33337236441219      2.82625861845658      2.49436016480558
  H          -2.90381386060074      6.81622563689283      2.95730546864068
  H          -3.50793008818194      5.45873020121014      3.89298152971644
  H          -1.88867801610956      6.06898835370473      4.20333675612984
  H          -3.46175221756314      5.65462772764987      0.89776984367350
  H          -2.66360806970911      4.15351256861207      0.43657878743596
  H          -3.97675629784364      4.13585097721331      1.62435901196333
  F           4.52382838915011      1.98123270559235     -1.36611049530405
  F           3.54591131945535      3.60815146881002     -2.40228227103765
  F           3.93595075622844      3.73950974333194     -0.28804228081746
  F           0.72468708503207      1.18892717558735     -2.98875466578808
  F           2.85607762140652      1.05811252813766     -3.06943598096520
  F           1.75223934878697     -0.33189344070261     -1.86733603781357
  C          -1.36628872233404      1.56290758522128     -0.17940366820646
  O          -0.26435021067541      0.76808717423409     -0.58157804267756
  C          -2.08217071890679      0.91885214914835      0.99042528631610
  C          -3.45664492317303      1.00564727644929      1.17136537246131
  C          -4.05286801912473      0.40691967082812      2.26825252578542
  C          -3.28775846526954     -0.27870190614715      3.19552921778170
  C          -1.91675188969923     -0.36744146751236      3.02212938162902
  C          -1.31895701932202      0.22629862415753      1.92703736751986
  C          -2.26132315109813      1.84890992844914     -1.38397436544716
  H          -4.07160045276523      1.53808075359215      0.46327772356971
  H          -5.12297330453118      0.47801154845968      2.39686149285735
  H          -3.75807082265846     -0.74188400197550      4.04975824649920
  H          -1.30976559119445     -0.89743458720986      3.74032413768430
  H          -0.24829644145515      0.16098393817034      1.79259706016537
  H          -1.64002743816481      2.15721914338585     -2.22378866603872
  H          -2.98151735461537      2.63637592909182     -1.18187594017101
  H          -2.79774488646106      0.94282932100308     -1.66495167325355
