73
Coordinates from ORCA-job TSA2S_3S E -121.311157165130
  Ru          0.48060547069168      0.90764633857212     -1.15857703414965
  H           0.71886501052798      2.41940010839970     -1.19942933233930
  N           1.64336711770559      0.78533419262154      0.58915430117517
  C           1.14013967452301      1.12085971219223      1.78269922182368
  C           2.89874491605561      0.24637491947194      0.51196940414226
  C           1.78415822018790      0.82256549685345      2.96848555108724
  C           3.57083172176109     -0.12193693357862      1.70401056427771
  C           3.01059053613929      0.15333086798971      2.91935669640310
  H           1.34933929246977      1.11141311957345      3.91198786608459
  H           4.53555122436958     -0.59729149231230      1.62217053254961
  H           3.51565609764293     -0.11613821384899      3.83497277353609
  P          -1.19333863888840      1.36209170609448      0.36366120358408
  C          -2.36372239165718      2.83276677722358      0.10480030609636
  C          -2.16685583296833     -0.08842315997016      1.12434432844148
  P           2.54771325078065      0.78880792977226     -2.02498697969680
  C           3.25068621861385      0.01072485946254     -3.62077680999580
  C           3.43883482788347      2.45008432068488     -2.42474398130765
  C          -0.14060775923010      1.90854956648857      1.77888492064024
  H           0.11935447932633      2.95299499618472      1.56349151491940
  H          -0.65424927086525      1.86519979774003      2.74260183844461
  C           3.49167632091875      0.09585503966761     -0.75069461664263
  H           4.50757358316125     -0.24360656105042     -0.87683946456634
  H           2.38872146870758     -2.36109838296327     -2.61124363886520
  C          -0.56645075823597      0.94683231890451     -2.68047515850291
  O          -1.23097452673902      0.93848961980590     -3.62329883915298
  H           0.41521284129134     -0.70534460115047     -1.18467331925032
  C          -2.84990022270487      3.48196142100951      1.40166853935067
  C          -1.60474021763671      3.89395251336981     -0.69466464262266
  C          -3.54200341971012      2.36462265408176     -0.75066782698763
  H          -2.02051486699458      3.90022982404076      1.96697836704877
  H          -3.52216061498901      4.30127421537429      1.14840087810289
  H          -3.39472406494849      2.79493166006379      2.03812365982983
  H          -1.33168590356920      3.51425088913791     -1.67716882465247
  H          -2.23774426054337      4.77047266706930     -0.82742098717154
  H          -0.69561236729974      4.20966524773637     -0.18686753727777
  H          -3.17672821617732      1.78282180766436     -1.59783658939926
  H          -4.24648458457492      1.76402558594974     -0.18124812648166
  H          -4.08044529506325      3.22745820934774     -1.14043292108778
  C          -1.11432181815917     -0.96029139682959      1.81325983630113
  C          -3.24314629909725      0.24882816486715      2.15238943163441
  C          -2.77533873128600     -0.88140918440220     -0.03352791773720
  H          -0.76696953996093     -0.51531337425282      2.74278774401019
  H          -1.53687109786085     -1.93530446268072      2.04938418514985
  H          -0.25623990426328     -1.11792251339566      1.15984787517410
  H          -4.09069536490835      0.76160222075879      1.70730659472600
  H          -3.61288539832265     -0.68210405423587      2.58296115175562
  H          -2.84381207259398      0.85061881437125      2.96597083757502
  H          -3.62664249204668     -0.36771280411029     -0.47076758762719
  H          -2.02349262882790     -1.02491109898208     -0.81075540103416
  H          -3.10884327305936     -1.85811509024892      0.31526749681752
  F           4.72609569686360      2.25902064617185     -2.76921078367510
  F           2.89170118779541      3.22963776487869     -3.35942644112588
  F           3.45621735706053      3.15672944845256     -1.28215668291370
  F           2.46517212934587     -1.02106904830236     -4.03528975622975
  F           3.29937613011247      0.86230097769587     -4.64166296592163
  F           4.46938212955223     -0.52090640589037     -3.47235600851058
  C           0.87379193789574     -2.74306646041891     -1.51147261548431
  O           2.17784987745049     -2.63243795304453     -1.70522481641307
  C           0.49494115007192     -3.26481272683029     -0.22411462115482
  C          -0.73985305412851     -3.89654684670043     -0.00595340186618
  C          -1.02123766758036     -4.46383834476468      1.21935269247175
  C          -0.10199127566543     -4.39732271838308      2.25748953241892
  C           1.11105479173604     -3.75005420815605      2.06377602976510
  C           1.41134191107269     -3.19277264442605      0.84114283241348
  C          -0.01488805900740     -2.84401907915248     -2.70554630826373
  H          -1.46227006411995     -3.96883193104976     -0.80256087201001
  H          -1.96579942444473     -4.96595179427360      1.37031632161959
  H          -0.33234779352015     -4.84347137884263      3.21307666762966
  H           1.82357200464389     -3.68493893386047      2.87197055648632
  H           2.34909917586221     -2.68297093862113      0.68476037815523
  H           0.33388993777518     -2.18856050929310     -3.50063752839750
  H          -1.04158103600911     -2.58111979354922     -2.47303692975100
  H           0.00706251766189     -3.87411138017321     -3.07307536337548
