73
Coordinates from ORCA-job TSA2R_3R E -121.308703059200
  Ru          0.79846779623704      1.02932824879061     -0.53567026265370
  H           1.00337254702237      2.52826521480120     -0.30463352809195
  N           1.66935165742934      0.58245037629875      1.31212058836904
  C           0.96175129075471      0.64060809464440      2.45119394536107
  C           2.95840440856509      0.11032092076707      1.34863017127719
  C           1.42200089119820      0.11884686610592      3.64189357701414
  C           3.45557014071180     -0.46734446527588      2.54865135259918
  C           2.68997654575436     -0.47657468355223      3.67619846526749
  H           0.81978120428462      0.18491867205800      4.53392912486640
  H           4.45412802331998     -0.87459338199573      2.54115861753985
  H           3.05773225590331     -0.91016775349111      4.59403268655364
  P          -1.11728126334056      1.20004295482271      0.73956632102798
  C          -2.24557658921399      2.72254136659390      0.63581882695693
  C          -2.18651553300269     -0.36223519030778      0.95667476312493
  P           2.97779891062473      1.05454112324810     -1.09763428694568
  C           3.85185545002864      0.46480330599266     -2.69420631599538
  C           3.89200902500680      2.74428140195274     -1.11228369803386
  C          -0.34227847306948      1.38818648668963      2.40350086142890
  H          -0.10275022253823      2.45544396243820      2.49602631006314
  H          -1.00752342592042      1.10734498104559      3.22401524354412
  C           3.75355758887465      0.21338606381949      0.20499135629235
  H           4.79643495791231     -0.06234448518625      0.19381587775229
  H           2.02605258598995     -1.91493041333172     -3.11794051943047
  C          -0.00788925800433      1.29515386203377     -2.17744006083164
  O          -0.53193515285739      1.38471090838135     -3.20085453350283
  H           0.81650406858876     -0.53832665284172     -0.86886531133407
  C          -2.94817324832867      3.06933187226433      1.94993250525089
  C          -1.37113550444708      3.91417828594004      0.23980770476931
  C          -3.26385176262732      2.50405197248559     -0.48390815776795
  H          -2.23233325419235      3.34782386662165      2.71947548549767
  H          -3.59755184011958      3.92751929281147      1.77919476506245
  H          -3.56425052799326      2.26005089787182      2.32384018231113
  H          -0.94777205536377      3.76643984398728     -0.75160814966724
  H          -1.97552374239849      4.82032951202724      0.22606390841310
  H          -0.55188784892184      4.06663704837861      0.93983613341288
  H          -2.76400019339016      2.11189391491962     -1.37026139713896
  H          -4.05554151977910      1.82136051659487     -0.18603104732602
  H          -3.72735027613691      3.45329094584374     -0.74961064995046
  C          -1.23855435645125     -1.41983226834417      1.52862248375696
  C          -3.39763277876328     -0.25661237453751      1.87903145918805
  C          -2.62644076341655     -0.80903800054435     -0.43866852179193
  H          -1.01722119893495     -1.23877829299137      2.57860354571922
  H          -1.68921423540885     -2.40773697776074      1.44221362944630
  H          -0.30506335457667     -1.41983718817396      0.96614279005182
  H          -4.17400029158697      0.37733166074382      1.46089353240642
  H          -3.82300227643156     -1.25204079301485      2.00857567257207
  H          -3.12152047921486      0.11378232698098      2.86416323105106
  H          -3.40766950864346     -0.17099638920476     -0.83973226951705
  H          -1.77780401381463     -0.78442453251635     -1.12400865564725
  H          -3.00890171679893     -1.82825002634973     -0.40436613722639
  F           5.22730061236786      2.58335962234610     -1.10408012150674
  F           3.59704653446768      3.58929674135512     -2.10279870610033
  F           3.58691894903617      3.36126980493152      0.03991390554012
  F           2.92409488939705      0.07766382303651     -3.59910009444007
  F           4.59201596829426      1.38726622185817     -3.31157304086926
  F           4.64385925405377     -0.59275933825690     -2.48861202108805
  C           1.47353889555485     -2.49179682700911     -1.36803291191019
  O           2.39213052362453     -2.12471686281108     -2.24400395881902
  C           0.15851937282528     -2.89033843694705     -1.79577401344587
  C          -0.61979248937760     -3.76622550759457     -1.01948197850913
  C          -1.85085353194900     -4.19546058877735     -1.46851669248625
  C          -2.35222896549310     -3.75409838033401     -2.68436819650122
  C          -1.61060480957551     -2.86337720916811     -3.44895237840761
  C          -0.37507248276823     -2.43575656246775     -3.01733116343766
  C           2.06900832127013     -2.94799209993802     -0.07684876947549
  H          -0.24011499108877     -4.13081984821085     -0.07897297587346
  H          -2.42736901885226     -4.88328347299771     -0.86723893299434
  H          -3.31719238154471     -4.09167834406789     -3.02943790833081
  H          -2.00409275948997     -2.49823208844036     -4.38512327120849
  H           0.15846603512992     -1.70358433989544     -3.60895849437388
  H           3.04299868396737     -2.47911070114344      0.03789372129750
  H           2.20540239915252     -4.03110522233577     -0.11008014495741
  H           1.44941830847866     -2.70365328166695      0.78058653280252
