22
Coordinates from ORCA-job NEB E -39.729878032970
  C           0.15488346908712      0.52898007936725     -0.91324378345743
  C          -1.21676712483049      1.08937016370458     -1.08455106351004
  F           0.24589121185153     -0.69594037205143     -1.54270051552936
  H           0.93383429810582      1.15167379921675     -1.36917274114582
  N          -1.83057816581714      1.07710021874468     -2.32372973078311
  C           0.44646783232199      0.39977935486480      0.62854883037178
  C          -0.65851150431003     -0.37390554496809      1.18668897988088
  C          -2.00910420811078      0.10383632059021      0.87026897630180
  O          -1.98354733298570      1.25888609648707      0.02430360153177
  C           1.85897856996255     -0.07701107820422      0.97321916070272
  H           0.33876266877426      1.44710625138582      0.95419578995115
  H          -0.52370569930973     -1.35718056519020      1.60068241722550
  H          -2.54673135592680      0.45066566486437      1.76143634186596
  H          -2.61765173956781     -0.70710764983189      0.42564616798152
  O          -3.04809071628064      1.22390927164733     -2.37475925944901
  O          -1.09481355540588      0.97408411813645     -3.30708428471566
  C           2.18130512195190     -1.50866808676370      0.55877258173081
  H           1.98297993743739      0.01925339176814      2.05454408553034
  H           2.57198894126387      0.59985101865567      0.49822422181484
  H           1.49800554761270     -2.21761169325412      1.01834778585473
  H           3.18992426641119     -1.75762319544260      0.87851119482933
  H           2.12647953776469     -1.62944756372688     -0.51814875698269
