22
Coordinates from ORCA-job NEB_reactant E -39.782963851560
  C           1.58192395825347      0.44004292428399     -0.26396822575808
  C           1.34472160744713      1.38594494465366      0.65311380126617
  F           1.83907202462183     -0.84148928971150      0.02206940242807
  H           1.59140489824631      0.65602857186115     -1.32094856357107
  N           1.08032030852284      2.73723554668052      0.14243728265951
  C           3.95034962993100      0.32775041095355      3.74162061089676
  C           3.17082188564017      0.04884847098849      2.70979416674144
  C           1.68265980840607      0.22759256820151      2.72616901210689
  O           1.26863836980343      1.38014662479625      1.98195067595881
  C           5.43318453733396      0.15836312427251      3.75781671225252
  H           3.51363900342988      0.68518196985146      4.66552192486441
  H           3.59739606103435     -0.30900961778768      1.78299413594828
  H           1.33191478008639      0.43879997268300      3.73807161991125
  H           1.17561173383604     -0.66488805309126      2.34412070016030
  O           0.89502116056215      3.59879761444572      0.96018572739984
  O           1.06813868883501      2.88548822674103     -1.05886974258689
  C           5.86211571512379     -0.80786474705287      4.86217176284960
  H           5.89711802615202      1.13188759797154      3.93890488385302
  H           5.77825647417332     -0.20885482478320      2.78994620562892
  H           5.53984000785348     -0.44356853311835      5.83490511059792
  H           6.94400237752382     -0.91241376567726      4.87413335844506
  H           5.42104894318356     -1.78821973716227      4.69775943794723
