19
Coordinates from ORCA-job NEB_reactant E -43.102876784940
  C           1.29971948730152     -0.28598278779075     -0.22518003888766
  C           1.37338813311290     -1.10876506219718      0.81459169896964
  H           1.84597574027961     -0.43300534728416     -1.13740571884459
  H           0.66149043472638      0.57636390740548     -0.15751451736754
  N           0.58943165541941     -0.82790487657450      2.02553337166561
  C           3.91286670950845     -4.91394223258281     -0.41953319427105
  C           3.60545748353887     -3.91124814029071      0.38731792721116
  C           2.90375136360138     -2.67328347936099     -0.06774731143562
  O           2.07899446246329     -2.23553277481195      0.99196097964032
  C           4.63972212842961     -6.14526639426074     -0.04292487051452
  H           3.65008405200816     -4.88385236100826     -1.47080553398769
  H           3.84454597951949     -3.92283822015209      1.44157745266570
  H           2.30531204386014     -2.86092523325785     -0.96894904372521
  H           3.65106225702343     -1.89758584845915     -0.29981213200082
  O           0.69735774796682     -1.60525782763086      2.93849900948226
  O          -0.10396970600342      0.16183423708623      2.01402737738662
  Br          3.53114588875383     -7.71464291366036     -0.48563842501919
  Br          6.29627884470379     -6.25985278487389     -1.11674524674888
  Br          5.13568529378633     -6.26741186029547      1.82644821578146
