22
Coordinates from ORCA-job TS E -28.477008970790
  C          -0.69445835599174      0.07251135941521     -0.97701403531426
  C           0.54898437213715     -2.01974683895185      0.52452828583377
  C          -0.76993623872935     -2.04489355888100      0.19787895608862
  C          -1.38440801552801     -1.04257578284703     -0.56724236088434
  C          -0.11432155050172      0.87169271913062      0.98893273254430
  C           0.63606849961452     -0.01795302937732      1.71182100828700
  H          -1.41682201287113     -2.76308463446644      0.68357810448710
  H          -2.46131186209351     -1.01176016996220     -0.62790641667836
  O          -1.39048768943326      1.07510195292583     -1.58612229708349
  H           0.95349982534844     -2.76006873904829      1.19710405886250
  H           0.35807990177348      0.02043587640083     -1.22764723991085
  H           1.27020246956028     -1.52527025352909     -0.10081440172600
  H          -1.14510532324747      1.02788462324587      1.24354612781689
  H           0.18699872787013     -0.60394697625222      2.49703163612868
  H           0.38935299305829      1.69578439726717      0.51069002576238
  N           2.01796833301184      0.10873782773734      1.81634738732845
  C          -0.62596968017854      2.06767078017228     -2.22033612042325
  H          -1.33092737801303      2.72655687724238     -2.72437647318219
  H           0.05893471700211      1.63666534446005     -2.95948307101023
  H          -0.04611912602715      2.65209410913553     -1.49672873955285
  H           2.45218784726719      0.56393075522633      1.02558537911869
  H           2.50758954597148     -0.72976663904399      2.09062745350747
