22
Coordinates from ORCA-job NEB_reactant E -45.834329215750
  C           1.84688144492554      0.12029004326947     -0.87722206503865
  C           1.67269567379445     -1.21928731589688     -0.83990871612072
  C           1.78930227200325      0.96119711448556     -1.98510489214255
  H           2.01854981980681      0.61074960755246      0.06942017594050
  O           1.71078419195570     -1.80919859100755      0.36551581366254
  C           3.46841213711681     -0.47512453209428     -4.32299250066998
  C           3.03684141168287     -1.45391077486900     -3.54488488533721
  C           1.59536177878229     -1.66807806524513     -3.19391216460457
  O           1.44173881882625     -2.08295666072341     -1.84773334609467
  C           4.88564785249247     -0.23530924436901     -4.69484468977836
  H           2.78641386583223      0.25821212167065     -4.73092050281084
  H           3.72138724862103     -2.17412544044934     -3.11812981604603
  H           1.20234695371686     -2.51115928612606     -3.77351392802099
  H           0.99515329722044     -0.77905274109120     -3.40492193224023
  N           1.74406881028700      1.70549142459171     -2.86177047544556
  C           1.53699766534476     -3.21342159740395      0.43152197609042
  H           1.61778803105188     -3.46322962522763      1.48700264378748
  H           2.31137023319268     -3.73432479856481     -0.13598767510840
  H           0.55591502314135     -3.50650191050463      0.05160256600056
  Cl          5.38318736196578      1.36523864990675     -4.07272085080785
  Cl          6.00534305236995     -1.44862727993536     -4.06348550980695
  Cl          5.03411305586960     -0.21907109796839     -6.47600922540795
