17
Coordinates from ORCA-job NEB E -37.354757476110
  C           0.06408857808048     -1.34407914837804      0.62974154012634
  C          -1.28379709906629     -1.36881212343591      0.32882069746457
  H           0.33551822569574     -0.96714491543344      1.60640784660265
  H           0.69373346549727     -2.14266562394754      0.26721341376375
  I          -1.88433959301108     -2.55666705673663     -1.37902256161215
  C           0.55424795146506      0.27944253406722     -0.39235369741636
  C          -0.37125862071671      1.20899352773631      0.07009247065003
  C          -1.75732372985707      0.93734235430124     -0.15353436406380
  O          -2.06832164284266     -0.41184225958472      0.64634444806283
  C           2.01672856957920      0.50947803111537     -0.12924458241908
  H           0.39335241765745     -0.15654742737840     -1.37441803056758
  H          -0.10419810996703      1.83333741167569      0.90937307469129
  H          -2.03249214240033      0.65671196847444     -1.16963623287393
  H          -2.45909460264139      1.63711890637996      0.28394953423852
  Cl          2.56204265940658      1.90167934520423     -1.11827840755419
  Cl          2.34717019453508      0.88240363991238      1.57343564523702
  Cl          2.99394347858571     -0.89874916397216     -0.59889079432991
