17
Coordinates from ORCA-job NEB_product E -37.404512919990
  C           3.34676016662696      1.20125374159820     -1.22126741910502
  C           1.91286599870841      0.82726720560408     -1.05181441886611
  H           3.92360302042194      0.65492268184463     -0.47032135631972
  H           3.68293638603283      0.91250615254616     -2.21970805889894
  I           0.63652000777124      1.66716728598621     -2.60157611001398
  C           3.54710354729860      2.71504658397678     -1.03281101460061
  C           3.01457625313337      3.14623318389313      0.30733305792027
  C           2.02774177849474      4.00900330078232      0.45193444045696
  O           1.42563789827595      0.15342310812282     -0.21764579861294
  C           5.02459852867896      3.08598609892333     -1.16979692955727
  H           3.01583256267672      3.25466154787382     -1.82462994943942
  H           3.48479223708144      2.68411756891224      1.16341348713089
  H           1.54826624143965      4.47702539458592     -0.39236117954992
  H           1.65677339612379      4.28240677454334      1.42392528600840
  Cl          5.21411703643589      4.84170969745146     -0.94574806838496
  Cl          6.03233884300176      2.25705848371208      0.03687057944590
  Cl          5.63363609779776      2.66301118964347     -2.79009654761351
