23
Coordinates from ORCA-job NEB_product E -35.828561040740
  C           2.68791250663807     -0.49897532453217      1.32590021606009
  C           1.63829296559645      0.52993049758813      1.59098921148219
  C           2.37413803605459     -1.18997002655943     -0.01086687736722
  H           3.65757793205660      0.00096977093675      1.24118212182463
  I           2.30836209632353      2.04143089141246      3.03974123809067
  C           2.72783033748648     -1.42943642945134      2.58336940810535
  C           2.10412109398179     -2.77344804920428      2.33876223787146
  C           0.91472548001823     -3.11863494155621      2.79362371055609
  O           0.54386239688460      0.61254333149956      1.16554899598351
  C           4.15459638563291     -1.58612285834063      3.11727743212060
  H           2.16891180989523     -0.94252286553424      3.39187390951643
  H           2.70591786109832     -3.47236403136620      1.77576463873308
  H           0.30016426780550     -2.43715364725646      3.35965311722953
  H           0.50018167513677     -4.09523336858395      2.61321410887861
  C           3.59666901483987     -1.85732044515538     -0.62670717955764
  H           2.00543139417843     -0.42951820690933     -0.70422327314879
  H           1.57178329105748     -1.91548594204085      0.13037277971814
  H           4.37637262429175     -1.12334494777115     -0.81822546747855
  H           3.32460323516818     -2.32087356320856     -1.57158807265350
  H           4.00753989036733     -2.62133243460938      0.02485287053303
  F           4.98005981468847     -2.17445289412883      2.19497545380331
  H           4.15904994314304     -2.23188202657160      4.00156894320684
  H           4.59549594765636     -0.61450248865689      3.36384047649212
