23
Coordinates from ORCA-job NEB_reactant E -35.807856972630
  C           2.09770656819955      0.09229154126813      0.11544329946360
  C           2.02336961831431     -0.10654905666906      1.42070520525468
  C           1.38621497956854     -0.74961190610276     -0.89840867384786
  H           2.70431203327400      0.89792875958004     -0.26804588582235
  I           3.09956258738457      1.21476254661414      2.73734662608347
  C           3.08331817407811     -2.24765577175447      4.43882870833720
  C           3.10677233326699     -2.24815774704774      3.11590152585551
  C           1.86829208639578     -2.31241741864268      2.27266344558618
  O           1.27419820274055     -1.02570072637236      2.05158499600802
  C           4.29568976839784     -2.13186733456085      5.30234564302339
  H           2.15262639100167     -2.31529112599660      4.98497302853180
  H           4.04830529485525     -2.15732587472134      2.59186460798773
  H           1.08065254893283     -2.87668290830838      2.77732686649612
  H           2.09129528841606     -2.77795795638152      1.30460885322706
  C           2.38273080195912     -1.48673860271465     -1.79317889786841
  H           0.76826418895894     -0.09426254543552     -1.51795130732362
  H           0.72710354901766     -1.46130334812713     -0.39863397627370
  H           3.02863454599070     -0.77850372678111     -2.30700229313201
  H           1.85430747947206     -2.07642727633808     -2.53824366870435
  H           3.00905013464820     -2.15459494527018     -1.20504704530232
  F           5.45558338289144     -2.24359840349113      4.58075147784805
  H           4.31515315763456     -2.92404341136021      6.06073730545611
  H           4.32215688460126     -1.15249276138652      5.79793015911568
