17
Coordinates from ORCA-job NEB E -33.493745878750
  C          -0.72518799148027      0.04455709311039      1.29742054633037
  C          -0.04064608450303      1.24639325879120      1.44032768267333
  I           0.10915806582289     -1.62016031180354      2.30912356151224
  H          -1.80385845177911      0.04966538779511      1.37674166628520
  Cl         -1.02762156827372      2.68667648469585      1.08071444190156
  C          -0.37071758468471     -0.22047796343832     -0.64350029411596
  C           1.01748736975459     -0.12273188209979     -0.69222406152665
  C           1.62995093970197      1.10303838817329     -0.33726718514765
  O           1.20466825526919      1.34782433588095      1.26534742795540
  C          -1.05024792719910     -1.50673891565471     -1.04439707039302
  H          -0.95424276290929      0.64794806410859     -0.93750379776242
  H           1.59510333909896     -1.03292841363994     -0.61507290322630
  H           1.20478730984081      2.01034938842462     -0.75701669266710
  H           2.71002860217578      1.11913526613602     -0.27894816101617
  F          -0.22226633346268     -2.58687606580510     -0.91986097040905
  H          -1.33582947364835     -1.45014707001832     -2.10255680144444
  H          -1.94056570372393     -1.71552704465632     -0.44132738894933
