17
Coordinates from ORCA-job NEB_product E -33.542485696650
  C           1.91251511593143     -1.69619631684016     -1.77951566569957
  C           0.59949683618253     -2.35695882824095     -1.50345001514548
  I           1.62731477680947      0.30370719389334     -0.98455536391520
  H           2.71407107467667     -2.12854260912585     -1.18154785865914
  Cl          0.53189167526679     -3.04209701587509      0.12421370434130
  C           2.26410414045225     -1.65471505779058     -3.26488233942312
  C           3.49660527403249     -0.82915367455092     -3.50152103812304
  C           3.53636170033621      0.21848000918764     -4.30177193460876
  O          -0.33317092882290     -2.43138887206737     -2.22945185650926
  C           2.49961473055141     -3.09186133833514     -3.75471119613029
  H           1.42368728994618     -1.23711286509884     -3.82914488192134
  H           4.38046701164344     -1.15853133035632     -2.97055838428511
  H           2.66713863355929      0.55316472568280     -4.84288896368800
  H           4.44028687651311      0.78238071220698     -4.45005625021766
  F           2.74808617705615     -3.08380181076664     -5.09904555334020
  H           1.61684747032898     -3.72032745664469     -3.59863873809855
  H           3.37548214553648     -3.54104546527821     -3.27237366457656
