17
Coordinates from ORCA-job NEB_reactant E -33.527579028140
  C           1.15844074475064     -0.67780496153281     -0.44245553577035
  C           2.24571874097649     -0.53825174421329     -1.19061847679875
  I          -0.68457578367726     -0.00297231012317     -1.16709606157729
  H           1.15658310720464     -1.10082571614842      0.54168463294772
  Cl          3.75879335240090     -1.15249022211038     -0.58523837818942
  C           2.13321750538837     -2.38629172494226     -3.76155069032635
  C           3.16598802352924     -1.57174385407803     -3.89260111314325
  C           3.23897689376363     -0.18529457005800     -3.32601225598455
  O           2.23551638331210      0.09407749042343     -2.36317857391874
  C           2.06979689917437     -3.76644408772776     -4.32883529157096
  H           1.24041802965228     -2.09538099622479     -3.22624303859838
  H           4.04226517251950     -1.87972105739848     -4.44448523967590
  H           3.06830550883018      0.55325781283964     -4.11612091265393
  H           4.23367184102531     -0.00960295051947     -2.89780787665370
  F           3.20889866200832     -4.09594798709821     -5.01699804929447
  H           1.23348712351568     -3.85796304358987     -5.03304970754579
  H           1.95289779562563     -4.51190007749813     -3.53189343124588
