73
Coordinates from ORCA-job A2R E -96.016974403520
  Ru         -0.36785028931834      2.01949021931047     -0.09369299499333
  H          -0.08048942469330      0.51461452801742     -0.34680525105360
  N           0.81911423270640      1.76992766330562      1.57335297336978
  C           2.13566090979050      1.51427074059089      1.44794435369665
  C           0.28334315853580      1.75272521059802      2.81022999988322
  C           2.93482466499655      1.21758622075800      2.54327290049868
  C           1.03044398240699      1.45032142921130      3.93753820831518
  C           2.38216351739452      1.17309191273896      3.81134804105106
  H           3.98239530460458      1.00879623791547      2.39042936437913
  H           0.55209999078255      1.44016228882627      4.90522477115403
  H           2.98348340068790      0.93267247001724      4.67405792828477
  P           1.65158878673945      2.47453101453495     -1.06950105721657
  C           2.14915433645543      1.77725598120499     -2.76283062640698
  C           2.37617245548756      4.23391998918473     -0.88822699544934
  P          -2.01385145839789      1.59635529461275      1.37244729395191
  C          -3.57032473282876      2.55827891458066      1.46416222022475
  C          -2.65362510225166     -0.06266826677679      1.85792102257687
  C           2.72713994788574      1.50237364934567      0.07467131332238
  H           2.68165592433455      0.46781135339926     -0.29027837526554
  H           3.77387495740087      1.81833747180939      0.08568808819285
  C          -1.16627724447248      2.10766743112537      2.93358253566319
  H          -1.61572643349882      1.68439645104536      3.83679700526704
  H          -1.25840192394805      3.20161446724030      2.96637759124813
  C          -1.44359353694022      2.15201479525770     -1.58334729965132
  O          -2.13849964485776      2.21191017888516     -2.50823289404201
  H          -0.62335557105626      3.50983241914176      0.26886094962773
  C           3.63609140321131      1.45981886735537     -2.92625046122885
  C           1.37492047842965      0.46998033987900     -2.93738196262426
  C           1.67073834661778      2.75123646762128     -3.84008638763141
  H           3.94731115071258      0.68417666181963     -2.23089959559056
  H           3.80072308519653      1.08326038015788     -3.93601893524181
  H           4.27048317931723      2.32790274978272     -2.79043793419095
  H           0.30225330141471      0.64322663522465     -2.86913814828545
  H           1.59531553906685      0.03592490132351     -3.91256655318069
  H           1.65088288797136     -0.25554612402232     -2.17735659408945
  H           0.65555560925061      3.08079608130504     -3.61241238334015
  H           2.32012915905223      3.61956125216881     -3.91841947795408
  H           1.65820037714130      2.25614086683074     -4.81081474107818
  C           2.37780057641076      4.53171514913065      0.61510609024020
  C           3.79356287703164      4.44661002547037     -1.41502010322640
  C           1.41404261274578      5.21166530607178     -1.56497535069742
  H           3.12647365315532      3.94488768790674      1.14554714890328
  H           2.59972593411306      5.58561729250697      0.78266581115985
  H           1.39630007852705      4.32570045830800      1.04116211943077
  H           3.83392183357601      4.39682731302067     -2.49938220806445
  H           4.12994493746545      5.44141535640273     -1.12069108254077
  H           4.49262549660686      3.72521511192107     -0.99621260148993
  H           1.51077306494516      5.19346774493383     -2.64614967266789
  H           0.38705540443090      4.95477375740552     -1.30550629108992
  H           1.61214788276287      6.22832082243864     -1.22658263941836
  H          -3.20046536074987     -0.48607485061120      1.01536317306591
  H          -1.80862794869204     -0.70872815368567      2.09424899470754
  H          -3.31493725638459      0.01059035181391      2.72214987367589
  H          -4.22858703352549      2.22372583224834      0.66136036042695
  H          -4.06390080058910      2.42076000920562      2.42703566046263
  H          -3.33552844365392      3.60956208499176      1.30343212811575
  C           1.30991246724001     -2.08734348587119      0.04236689820157
  O           2.43163126091299     -1.64103989525477     -0.08853694530023
  C           0.50868320795524     -2.50333664770726     -1.13460542637562
  C          -0.86774484173580     -2.31484001527346     -1.21812649317177
  C          -1.54769947277754     -2.67630526768193     -2.36624132091485
  C          -0.87010744491553     -3.24531451415090     -3.43175415344713
  C           0.50041630013087     -3.43432688798072     -3.35800065752853
  C           1.18734057083792     -3.05244515285665     -2.22271096455831
  C           0.71425531212719     -2.31847472394410      1.40745605503820
  H          -1.40149100002049     -1.83185236399372     -0.41519654893454
  H          -2.61234998185524     -2.50778084151535     -2.43285142981157
  H          -1.40840029829139     -3.53101982226631     -4.32353392195277
  H           1.03379018002806     -3.86988331967685     -4.19014392848393
  H           2.25834159205569     -3.17907370392962     -2.15620753249180
  H           1.11549319548106     -3.26035781735604      1.78361756217560
  H          -0.36659533762082     -2.39525181741151      1.37700787099253
  H           1.02437205694395     -1.52607416793660      2.08640163337672
