73
Coordinates from ORCA-job A2S E -96.023124833120
  Ru         -0.42830482819529      2.00159423557299     -0.23118350331885
  H          -0.23276024608162      0.46785548500788     -0.40172630100696
  N           0.63199264838476      1.79002558284876      1.52207967377350
  C           1.95737654610190      1.54607590654533      1.50168855727462
  C           0.02185654459222      1.87573186786944      2.71983795815408
  C           2.69808105950162      1.40793973525674      2.66700410478737
  C           0.70749726886538      1.72080729734272      3.91415057976887
  C           2.07324506328589      1.49335619400045      3.89858867873202
  H           3.76062314300401      1.22860706973099      2.60007460496781
  H           0.17052364419181      1.79685309290260      4.84742478129477
  H           2.63164805525216      1.39162212921305      4.81606707617973
  P           1.66578125082305      2.33461581180642     -1.09753965497920
  C           2.25068869562955      1.52995827720699     -2.71374646233249
  C           2.43956243448102      4.07836659155200     -0.96675077436361
  P          -2.19121961784671      1.72186441187615      1.12463346343011
  C          -3.68732021323963      2.77945385415913      1.08062558664029
  C          -2.96362713593393      0.11167353559924      1.56086373994111
  C           2.62576699872140      1.39674248138779      0.17295647412341
  H           2.54350317606075      0.34324951647224     -0.12654118675606
  H           3.68510454747836      1.66247149588705      0.22233592626226
  C          -1.43776371139144      2.21492127415634      2.73788546950511
  H          -1.94366573429219      1.77690727032850      3.60386774058186
  H          -1.53894077874133      3.30779085923850      2.78515715229658
  C          -1.39203513987114      2.15034980492917     -1.79436752307051
  O          -2.01803401987275      2.23227776837041     -2.76573421271526
  H          -0.62080138172978      3.51415728738822      0.06770722551400
  C           3.72921990933210      1.14190541365763     -2.74957759404479
  C           1.43230402905485      0.24901366635830     -2.88056286961721
  C           1.89295870687099      2.46359686038559     -3.87092723038749
  H           3.94661881005894      0.37680001783153     -2.00834616328216
  H           3.95374564431999      0.72390419556285     -3.73103771061267
  H           4.39233348528034      1.98410632657453     -2.59004778529036
  H           0.36682867186435      0.47335365066067     -2.88644203470000
  H           1.69423048955297     -0.23318817711434     -3.82234339304227
  H           1.63574979425928     -0.44911950730899     -2.07377150177122
  H           0.87834316688973      2.84243592781075     -3.73651499775193
  H           2.58144982913477      3.30133909387702     -3.94585311937981
  H           1.93013247975128      1.91836386852463     -4.81386309752475
  C           2.36480820324370      4.46628484181785      0.51391635193647
  C           3.89269608952925      4.21580673914537     -1.41567673809725
  C           1.55359609562861      5.04399920208674     -1.75590200724200
  H           3.06845350290591      3.89695786050069      1.11931706669878
  H           2.60350759561769      5.52337580427806      0.63045104453962
  H           1.35704072938637      4.30834258045344      0.89653438799938
  H           3.99996330555987      4.09190437548939     -2.48934469919692
  H           4.24169795276339      5.21853032235979     -1.16624938524965
  H           4.54070308492620      3.50542729779099     -0.90576995427592
  H           1.71556116489586      4.96165055868150     -2.82617039301772
  H           0.50453103473682      4.83358095711846     -1.54765392177787
  H           1.76407091769189      6.07213532391630     -1.46254677737019
  H          -3.47358748436543     -0.27532385818192      0.67849914633703
  H          -2.17359247953599     -0.58321025588126      1.84357867248749
  H          -3.67646046341532      0.22374619112161      2.37877184140236
  H          -4.29786516128934      2.47141944548274      0.23085346780897
  H          -4.26402831836285      2.68578794219626      2.00170340406559
  H          -3.37810402912392      3.81262882889516      0.92859110189371
  C           1.15633671804370     -2.20841766894299      0.10356564026842
  O           2.25704676211341     -1.78863107502445     -0.19426026144416
  C           0.68668836182527     -2.17628748784368      1.51180456998318
  C          -0.59821495383536     -2.55347859635082      1.89671753509503
  C          -0.97115058514105     -2.49328438013590      3.22785103196334
  C          -0.07212604061513     -2.06139406306856      4.18941511145452
  C           1.21001106796528     -1.69162050940307      3.81781179089253
  C           1.58387231985548     -1.74778386240018      2.49029377700105
  C           0.22040195191896     -2.76900296047789     -0.93022600911331
  H          -1.31419919120170     -2.88858650619776      1.16247164569878
  H          -1.97024110486631     -2.78628412209605      3.51810330719719
  H          -0.37003856381886     -2.01829993020232      5.22689661715523
  H           1.91712090794652     -1.36312848431108      4.56477206817191
  H           2.58085956915150     -1.46705273359069      2.18442723218799
  H           0.74507519545730     -2.87658151475365     -1.87629792867045
  H          -0.60035851510582     -2.06530713600263     -1.06607851830023
  H          -0.18046892603350     -3.73068329993882     -0.62064189576281
