73
Coordinates from ORCA-job A3R E -95.991098485440
  Ru          2.13942371921637      3.33588914576015     -0.17218777079012
  H           0.73650106652602      2.14004195708977     -0.25022762931772
  N           2.49750297872196      2.23085024948846      1.56732428600128
  C           2.81556071852754      0.90366791210903      1.41155810401187
  C           2.25115144338779      2.72439315699711      2.78561063271224
  C           2.76364722240121      0.05144391234350      2.55204721397768
  C           2.21642756011086      1.93462574250640      3.91638201613332
  C           2.46248233662516      0.56061278058455      3.77983159431375
  H           2.97569341280520     -0.99799352403672      2.41450721299713
  H           2.01168672448134      2.36890637592466      4.88144915821781
  H           2.42395189591473     -0.07984458278615      4.64896898285612
  P           3.52028860908561      1.68540417396422     -1.05323912857450
  C           3.19275778037020      0.95632605889371     -2.77555329898105
  C           5.40121670194556      2.01416647972470     -0.86449485935085
  P           1.16363566596269      4.77307676098071      1.34306764193655
  C           1.65722568514708      6.53521847936955      1.24004842046986
  C          -0.54802026461372      4.99976382658669      1.99815582570517
  C           3.12541735665512      0.42537036732034      0.13346720070760
  H           1.26341627288365      0.00653339011027     -0.15884579924901
  H           3.51029210388647     -0.58151847282759      0.03333424084555
  C           2.04515437204162      4.21173168392784      2.86753062869923
  H           1.52394225988180      4.50205709102697      3.78338634080355
  H           3.02838341411432      4.69895165426549      2.84627901276277
  C           1.80413101447642      4.29967728473338     -1.70500612218347
  O           1.62569496737153      4.95457522460728     -2.64003287802656
  H           3.34902546481577      4.22421859187217      0.06020245664883
  C           3.52512594916539     -0.53191371855692     -2.86058383020512
  C           1.69823762627214      1.13148231776860     -3.06234473824176
  C           3.95182239312273      1.75295381344041     -3.83533343574656
  H           2.89205442371713     -1.10341774353459     -2.18571648580587
  H           3.33550149419826     -0.88346722287554     -3.87464087372058
  H           4.56416453754415     -0.73538354608151     -2.62189724036520
  H           1.39722360930577      2.17508114923620     -2.94796447018703
  H           1.48530843264304      0.83520118396383     -4.08927609284364
  H           1.08954390714972      0.50973978173555     -2.41241253393394
  H           3.79619544802026      2.82014501948395     -3.68010901058255
  H           5.01632794705742      1.53890131826192     -3.82219873921071
  H           3.57642976153161      1.49533404092450     -4.82572895822903
  C           5.61802022216930      2.25365760130927      0.63266127526693
  C           6.26831532668890      0.82712191842734     -1.27772103728130
  C           5.80548184998473      3.28665656044452     -1.60913232935584
  H           5.39393563798151      1.36026957198009      1.21290226217425
  H           6.65619918351725      2.52636148370646      0.81871282193214
  H           4.98211891022803      3.06754667980291      0.98168080199685
  H           6.26676261423924      0.67108953514476     -2.35291489874655
  H           7.29885033762324      1.00939690340724     -0.97210320645482
  H           5.92952337966330     -0.08291705677095     -0.78491949162703
  H           5.94214221086056      3.11627122227136     -2.67154195346014
  H           5.03980579730184      4.05210238288381     -1.47166330405898
  H           6.74569901949801      3.66496843615194     -1.20922510804606
  H          -1.22851390038683      5.24849843646875      1.18440654593612
  H          -0.89061444829169      4.08805342445206      2.48343983105897
  H          -0.54682191298486      5.81183007803940      2.72563209799949
  H           1.04354656269351      7.02717454783700      0.48540890054467
  H           1.52525931388067      7.03407234698419      2.20101184917202
  H           2.69925625020999      6.58507918562961      0.92615515712895
  C          -0.12808900200012      1.38492889300416     -0.19410702043130
  O           0.32635183567427      0.09171252127118     -0.47001233111726
  C          -1.15654875612295      1.81062487287949     -1.21620360517095
  C          -1.33789709078560      3.15320183772379     -1.51690296768183
  C          -2.30658105332431      3.54324880643591     -2.42239572676333
  C          -3.10391283350523      2.59129642831209     -3.03617001184163
  C          -2.92707836138476      1.25109190788107     -2.73967144829133
  C          -1.95973146247189      0.86078172077082     -1.83095633125036
  C          -0.76522072125824      1.42916087735424      1.20218545281906
  H          -0.70299625138216      3.89942200529322     -1.04659806919054
  H          -2.43343986067620      4.59019996222608     -2.65583955552072
  H          -3.85749500144984      2.89528497741677     -3.74764259077370
  H          -3.54410211021809      0.50493312408037     -3.21845033091178
  H          -1.80819209203652     -0.18137040830143     -1.59675823834224
  H          -1.47264590821136      0.60463111143453      1.27412944354579
  H          -1.30304609533364      2.36178620135566      1.34407718646841
  H          -0.01760760286011      1.30872978838932      1.98486885601900
