73
Coordinates from ORCA-job A3S E -95.986620980680
  Ru          2.09190779302711      3.38222046773248     -0.20689955439110
  H           0.56447156322884      2.39995929006418     -0.05327837428336
  N           2.59745393050310      2.38558675414295      1.56764387686792
  C           2.87086975921126      1.04303598223477      1.47660117876588
  C           2.51580017681225      2.97180708998876      2.76540310899474
  C           2.98673291131494      0.28375419406207      2.67588832279974
  C           2.63423618738302      2.27148262004181      3.94895864710265
  C           2.86682401992448      0.89171746375968      3.89085311018605
  H           3.18237822878879     -0.77493557843061      2.59230550674371
  H           2.56099862219529      2.78304596144526      4.89475473830055
  H           2.96273598580011      0.32298352750408      4.80443902827035
  P           3.34159623254265      1.61309139168995     -1.08786629174661
  C           2.90832520619273      0.75251344045286     -2.72237785943126
  C           5.24392647929352      1.89663137172078     -1.04546000961112
  P           1.38251211907542      4.98230776122966      1.28306889674166
  C           1.99019970444292      6.68900138397709      1.00606826421632
  C          -0.24724318009743      5.37829778683433      2.03893619574979
  C           2.97867994420146      0.45788382629113      0.20771852549319
  H           1.00921499353517      0.26411120844008      0.07750963136768
  H           3.31076597265999     -0.57095027521962      0.14464324776429
  C           2.34991866482680      4.46597752152372      2.76968985424297
  H           1.89634733567534      4.81963510018480      3.69919778851285
  H           3.34293421051939      4.92205068058242      2.66385100112814
  C           1.56526356234255      4.22999629968380     -1.75366815017576
  O           1.22960789667581      4.79917271479654     -2.70214453359532
  H           3.35676456720235      4.22187635899284     -0.20067916397369
  C           3.19719965487350     -0.74713119410728     -2.70651166986877
  C           1.40431295936913      0.94714346634658     -2.92188492881769
  C           3.61044522282798      1.43795079536194     -3.89299633314897
  H           2.58755330462961     -1.24557238768312     -1.95648436827066
  H           2.94256787787546     -1.16956988568573     -3.67846721065242
  H           4.24154323731617     -0.96463564670564     -2.50858037886898
  H           1.15941719162881      2.01114466103596     -2.90760735837668
  H           1.10246175814180      0.54257453891475     -3.88795523807851
  H           0.83804933927321      0.42808052484158     -2.15293734887648
  H           3.49502567075355      2.51850077162479     -3.81431863974039
  H           4.66688807788181      1.19137611640267     -3.93803253732863
  H           3.15761087670262      1.11452412656530     -4.83044156567198
  C           5.58024869340589      2.25017329475396      0.40619511495070
  C           6.04632515432697      0.65062989917626     -1.41409976689943
  C           5.63226679069600      3.08778511863343     -1.92198496331238
  H           5.37030393090515      1.41806311486379      1.07592929393122
  H           6.63906430082344      2.49251355763973      0.49187458933876
  H           5.00401114953572      3.11720585131665      0.73028015284205
  H           5.96776943727743      0.40735476683744     -2.46987859087629
  H           7.10005986002801      0.82199486815051     -1.19311240055248
  H           5.71591487053515     -0.20383081818073     -0.82537965826230
  H           5.69874436813419      2.82224576903035     -2.97133936239643
  H           4.89587043018246      3.88492580219322     -1.80670975949477
  H           6.60448361952515      3.47093389181387     -1.61381523019718
  H          -0.94482106632096      5.67894512674509      1.25786150831414
  H          -0.64290816701611      4.50301877166992      2.55008202243138
  H          -0.12851082639973      6.19628271071777      2.74999836639914
  H           1.36292839520961      7.16371872669506      0.25166866347075
  H           1.95445140958715      7.26838888445938      1.92952729744359
  H           3.01048912889803      6.64035551958790      0.62751048084367
  C          -0.34587353735342      1.69954872543826      0.07528786225465
  O           0.04956248450989      0.37127884007533     -0.14051945985818
  C          -0.90349152210013      1.86049375694535      1.48180371900970
  C          -2.00980288122979      2.65656482001436      1.76064747309028
  C          -2.51184573110039      2.74317872329733      3.04874922064458
  C          -1.91517690891344      2.04407044103217      4.08339093685952
  C          -0.82333158726467      1.23839345667356      3.81414061366878
  C          -0.33334011510315      1.13895893159432      2.52525505923004
  C          -1.36432011470967      2.08796549146234     -0.99811714225677
  H          -2.49228857570683      3.22154904659312      0.97903972406119
  H          -3.37467779729954      3.36457758421866      3.24184901345985
  H          -2.30509059300107      2.11938648176714      5.08772569959052
  H          -0.35124553439230      0.67624239123977      4.60626142402987
  H           0.49488274158993      0.47572888874734      2.33108655956083
  H          -0.99075957278320      1.80026626315554     -1.97594283763515
  H          -1.54132730285060      3.16052972265925     -0.99866474658751
  H          -2.29699299017676      1.55702134834496     -0.81994028543648
