73
Coordinates from ORCA-job TSA2S_3S E -95.981063901120
  Ru         -1.09486681906511      0.41096403988761     -0.49837265229866
  H          -0.65239368893620     -1.31350566337793     -0.41652286192302
  N          -0.01227453991699      0.52454436940658      1.28592538246832
  C           1.32196462678111      0.29291106651061      1.22300027923536
  C          -0.60893833623969      0.69574496906010      2.46753902853191
  C           2.07231678749567      0.20586520983796      2.41033843330396
  C           0.08362226214093      0.59880377653612      3.66339382232889
  C           1.45102088857977      0.34511808790599      3.62711204979315
  H           3.13358471618642      0.02017183521072      2.34424909422094
  H          -0.43309471902206      0.73039374526639      4.60037054520733
  H           2.01450420659316      0.27154821432826      4.54520263037352
  P           0.99801739170339      0.96644735108928     -1.36467473010216
  C           1.66138640278791      0.28770929730564     -3.00620668330027
  C           1.51960902525669      2.80534625583050     -1.20960065134316
  P          -2.86600589496101      0.29864844772885      0.95648071515169
  C          -4.24825928404468      1.45959627411313      0.63447098538530
  C          -3.82857247681391     -1.05636126013310      1.74526193359651
  C           1.91272676666990      0.07851465884977     -0.07835098894958
  H           1.60910556559196     -1.24636163246996     -0.35183616956714
  H           2.99902714435630      0.14224105666046     -0.10074690835941
  C          -2.06429552987974      1.06075957053585      2.44218214233129
  H          -2.56567655109737      0.78405235653961      3.37306407589930
  H          -2.14383913040934      2.14715314658110      2.30597677954338
  C          -2.08004653921185      0.26019332739068     -2.04785897727413
  O          -2.74904106968487      0.20352556791115     -2.98796758538938
  H          -1.42908899021225      1.90511487961275     -0.44535018925604
  C           3.14735634796690     -0.06289245569278     -2.95248053813436
  C           0.88051095217515     -0.99818941460280     -3.27970153259030
  C           1.35770958615464      1.25554956029665     -4.14946960261808
  H           3.31869066050142     -0.87348383726858     -2.24863224052183
  H           3.46552426735833     -0.40352481031545     -3.93752180248768
  H           3.76702476056887      0.78379438305186     -2.67527903104276
  H          -0.19181978348485     -0.79678914832564     -3.30774020870598
  H           1.17482019036383     -1.41198495666192     -4.24376582422200
  H           1.09495310092922     -1.74149247852869     -2.51510030486754
  H           0.31995526592361      1.58320047073889     -4.09357088417757
  H           2.01112076712504      2.12312087379215     -4.14203719360026
  H           1.50058520428558      0.74609602917807     -5.10237296468512
  C           1.30333042510980      3.20786915257402      0.25211509071469
  C           2.98717711203633      3.05944030862689     -1.54720186121443
  C           0.59650009932596      3.66929256322726     -2.07104100429842
  H           1.97855710545116      2.67529133163427      0.91956792516744
  H           1.49115494104849      4.27493705800419      0.36947418336974
  H           0.27476809052641      3.01071130004963      0.55402012294036
  H           3.19770962950034      2.91392836769873     -2.60239971722950
  H           3.23697715551818      4.09178791548027     -1.30121087138695
  H           3.63718089888153      2.41133346073511     -0.96160884571390
  H           0.88050045477277      3.65749740788958     -3.11744344671049
  H          -0.43025761861976      3.31111933126197     -1.98181648266006
  H           0.63001701015475      4.70312724574997     -1.72918800434037
  H          -4.33597046618125     -1.63572270106445      0.97468191070326
  H          -3.15744575688386     -1.70923859549046      2.29935745489592
  H          -4.57002422481882     -0.62953462316466      2.42136910620699
  H          -4.90305413192096      1.01618668196568     -0.11589867572577
  H          -4.81591984299496      1.65177258080404      1.54566934689153
  H          -3.84365812505448      2.38837107674465      0.23531057666450
  C          -0.16155044499615     -2.43274666244697     -0.27407696688145
  O           1.14534325032779     -2.40084670384903     -0.58087425552680
  C          -0.41152354825052     -2.83141077669474      1.17560724241369
  C          -1.60596693312702     -3.39996314308338      1.60240669643658
  C          -1.77316397262974     -3.78431088225637      2.92238755104288
  C          -0.75342402733447     -3.60339727576356      3.84061305359804
  C           0.45054594137649     -3.06842876894291      3.41855771152386
  C           0.62221499844239     -2.70377547779953      2.09661309701601
  C          -0.95277944726207     -3.32393661892700     -1.24473091796265
  H          -2.41512349884911     -3.55766662768913      0.90569499761312
  H          -2.70744671507680     -4.23151583994751      3.23405815838979
  H          -0.89116314383413     -3.89588858346366      4.87149215283154
  H           1.26536613039805     -2.94496903649581      4.11738465279097
  H           1.57959861776248     -2.33822276960219      1.75919086016171
  H          -0.63063554563991     -3.12445404278105     -2.26265075252829
  H          -2.02242622733147     -3.14203636393291     -1.17947821134220
  H          -0.74233172434333     -4.36714345283082     -1.01535924980571
