23
Coordinates from ORCA-job NEB_product E -47.448000554200
  C           2.45371391564510     -1.70148964721146     -0.10782612166468
  C           1.42441903739466     -1.20016692344287      0.87181437621994
  C           2.47494369025618     -0.72984154911714     -1.29174282875270
  H           3.44710145959109     -1.73892070571904      0.35070140470464
  C           1.93095768552212     -0.90985634274120      2.28448709244013
  C           2.04915383505912     -3.15624912758305     -0.48217201238845
  C           0.78999777566882     -3.21810637711327     -1.29618582131336
  C          -0.35838928784158     -3.66542950405110     -0.82569216901802
  O           0.27020962027879     -1.01435864035122      0.61767898209204
  C           3.18512563009705     -3.87844025358568     -1.21529559886807
  H           1.90622854107132     -3.71471156423740      0.45115359498393
  H           0.87591294296773     -2.86546481880690     -2.31353698897005
  H          -0.46326144960259     -4.02179950372201      0.18608596867722
  H          -1.24656174577014     -3.68420657361942     -1.43178391694935
  H           1.47126310747980     -0.59426517700101     -1.68645876214076
  H           3.12494624282638     -1.09748560914395     -2.07869891066111
  H           2.85228340616837      0.23698064948549     -0.96349402787160
  Br          3.29467170443902      0.47821037067806      2.18278325853489
  Br          0.47174205837716     -0.30497729308273      3.39927255221141
  Br          2.70803368654235     -2.52568182465265      3.05116973940544
  F           3.43761177359373     -3.35403385445211     -2.43594276547007
  F           4.34408071469178     -3.78889903324409     -0.52076077391541
  H           2.95761565554373     -4.94650669728524     -1.35605627128600
