23
Coordinates from ORCA-job NEB_reactant E -47.436308167830
  C           1.92675283887644      0.08183741880864     -0.05523847649731
  C           1.54370268809717     -1.03212918764604      0.56507718685563
  C           1.24689563266182      0.68157296369193     -1.23473719611127
  H           2.79312013049473      0.61059957492783      0.31797828255701
  C           2.26470056343599     -1.52044542983654      1.79571758248862
  C           1.83077286709529     -4.65524102365471     -0.42280123082127
  C           1.79441265590229     -3.45519011152334     -0.97770318002961
  C           0.56937385478797     -2.58714830903778     -0.97128057132161
  O           0.47114199238736     -1.80994336166789      0.22604166920181
  C           3.06518040841570     -5.50307641918496     -0.36503200138695
  H           0.96235419061585     -5.11119921342988      0.03027420977741
  H           2.68886418899077     -3.03082166279021     -1.41486861672434
  H          -0.33972422972039     -3.19159851606349     -0.95774125644550
  H           0.56727507442268     -1.93327329264709     -1.84949719005597
  H           0.23330245659926      0.30295619859032     -1.33964056200998
  H           1.80833645632842      0.46731474034510     -2.14526202215233
  H           1.21072166237514      1.76271637241936     -1.11851986672188
  Br          2.49696423348661     -0.10635807980958      3.11901081355113
  Br          1.30143226571235     -2.96928301013634      2.63058424972285
  Br          4.07256066030866     -2.18701566004062      1.32956662196018
  F           2.78696647176881     -6.77290750763160     -0.75498921170438
  F           4.03424957169048     -5.05205214290306     -1.19471501672665
  H           3.49244336526660     -5.55811434078006      0.65197578259439
