19
Coordinates from ORCA-job NEB E -39.903215610400
  C           1.10195070725183      0.62985099876072     -0.09164497621303
  C           0.50856842805601      1.71667161662844      0.56207925169669
  N           0.94784480520615      0.56967985466263     -1.53919370043381
  H           2.11037912950666      0.34440444645941      0.19211005199324
  I           1.43278526481201      2.32890227228668      2.40755513552101
  C          -0.08680228175552     -0.81155405112317      0.40376947641869
  C          -1.32900107916074     -0.28808024550159      0.04811399307786
  C          -1.77522523273323      0.90496474869168      0.69761194356614
  O          -0.69709455857557      2.05748938325138      0.37083194501928
  C           0.42177836283330     -2.05127033899979     -0.29932777515452
  H           0.18165587147395     -0.80480479162996      1.45753523419092
  H          -1.74836252724636     -0.52967094674173     -0.91675130088719
  H          -1.72993007150241      0.90691130449613      1.78559199205528
  H          -2.69266865346689      1.33842659763482      0.31819217627819
  O           1.92622222055347      0.20361871908631     -2.15057952491966
  O          -0.11316771564250      0.88091641520977     -2.02008297649890
  F           0.02948482866767     -3.15111548724023      0.42242432761621
  H           1.51554563320825     -2.08655129851050     -0.34613306305531
  H          -0.00396313148606     -2.15878919742100     -1.30210221027110
