19
Coordinates from ORCA-job NEB_reactant E -39.930331043020
  C           1.92299104286226     -0.09194349430329     -0.00148359595961
  C           1.19345736356495     -0.74260112673040      0.92582120966954
  N           2.27995717640310     -0.65848643283658     -1.25112789622312
  H           2.28767680438684      0.90944360397776      0.14996717342256
  I           0.80084958042295      0.31946203189003      2.73326063480477
  C          -0.13071966498207     -5.12603140544794      1.78187229089980
  C          -0.39018235969174     -3.97464112744079      1.18656011088400
  C          -0.01006590047057     -2.64392667759676      1.75248625101713
  O           0.73647459923395     -1.94750674747607      0.76482151768712
  C          -0.52603323122669     -6.46049975504181      1.24011115718857
  H           0.38638596824268     -5.17240672826618      2.73066660032640
  H          -0.89319088271952     -3.94475757674820      0.23158849986976
  H           0.59243636304139     -2.76270197495574      2.66216072604919
  H          -0.91518393281234     -2.06767970738810      1.99520274375393
  O           2.94562715736823      0.05010922680555     -1.98144883626771
  O           1.91777091689672     -1.78485646232091     -1.51935981654692
  F          -1.28577468717411     -6.35294709540278      0.10756709701507
  H          -1.12335345795467     -7.01676463518667      1.97359435666412
  H           0.36177714460864     -7.04946391553112      0.97663977574539
