19
Coordinates from ORCA-job NEB_product E -39.941300180990
  C           1.63676546176219     -2.29493144694512      0.66657239621619
  C           1.10277164080063     -0.91534103190984      0.94194724717182
  N           1.72929246673771     -2.51886058386660     -0.80833098547368
  H           2.65355731165868     -2.39728679253904      1.06406814406696
  I           1.36462280995987     -0.37732484277198      3.02307817027054
  C           0.70932254926933     -3.36051096823545      1.30442727562005
  C          -0.73972508148454     -3.07855866973694      1.01415516657130
  C          -1.63279128478884     -2.85198657951607      1.95838924087764
  O           0.60310957713265     -0.16079725488925      0.19214658654007
  C           1.10848916219805     -4.76414223025987      0.82116775471149
  H           0.86945444278819     -3.33460079558124      2.38878478953392
  H          -1.01584427820906     -3.07580683510036     -0.03122126649711
  H          -1.37368317887581     -2.85728510271651      3.00497076905251
  H          -2.66468869492665     -2.66283588282136      1.72171402527478
  O           2.81022221738983     -2.87125965235631     -1.20930284180409
  O           0.74026776672184     -2.35788860264091     -1.46767192502321
  F           0.58136607414618     -5.69056046901353      1.67603356028763
  H           2.19571661985950     -4.90411730546022      0.83335242372935
  H           0.70777441786023     -4.98650495363941     -0.17358053112616
