19
Coordinates from ORCA-job P E -31.506846029150
  C          -1.44218828958041      0.48144350398149     -2.27781419616757
  C          -0.03444446256070     -1.56608343265868     -1.13409108444128
  C          -1.38946817266648     -1.85297154826837     -1.69784856812993
  C          -2.07587048323721     -0.86944969421547     -2.25974517442017
  C          -0.92539515728402      0.83720855800317     -0.88058271312209
  C          -0.07606216047721     -0.29228783204123     -0.25765976163879
  H          -1.77555007505156     -2.85730078222107     -1.63874450593908
  H          -3.05436290373349     -1.01062743325066     -2.68704436405683
  I          -2.80417679607435      2.03141709461640     -2.97420078736378
  H           0.33194565912687     -2.40045834166729     -0.53711562092389
  H          -0.62651096086082      0.49711212632076     -3.00762519206429
  H           0.66972264339981     -1.42110154240858     -1.96280640897442
  H          -1.78739925923291      1.01625828219847     -0.23561222769252
  H          -0.50268227491966     -0.56999420348914      0.70924063156368
  H          -0.36133350733933      1.77360350376425     -0.91990448935479
  C           1.35985254940261      0.14381967619723      0.01450151787254
  O           1.90668949604608     -0.01230290547145      1.06514088859990
  O           2.00120684952393      0.69981297745290     -1.02657242582167
  H           1.44341730551887      0.76893199315726     -1.81306551792502
