19
Coordinates from ORCA-job TS E -31.406034552060
  C          -1.04189183118101      0.55512510216205     -1.40639803740988
  C           0.48445796092004     -1.56758134422251     -0.23565372344310
  C          -0.85090107715519     -1.65671435457861     -0.45137967599683
  C          -1.60655834413694     -0.63066922440880     -1.06263586128447
  C          -0.39520136929503      1.22985948015059      0.67136866814199
  C           0.37158665012064      0.25605652937544      1.23639921341199
  H          -1.40778113374714     -2.46172161619634      0.00693274950675
  H          -2.68248154310321     -0.72957329988954     -1.05994963955122
  I          -2.20309687649697      2.13661501485558     -2.18402596677942
  H           0.99675285797189     -2.31568706970214      0.34504913430652
  H          -0.00609421903255      0.64357639787927     -1.68113282205540
  H           1.11906956169972     -0.94722922547210     -0.84383752752044
  H          -1.42352851070384      1.33318405612635      0.97188321590963
  H          -0.06852731958857     -0.42445641428593      1.94870407014684
  H           0.03123402206987      2.10966010528349      0.21299537741646
  C           1.85329565423943      0.24602935828517      1.25598482001403
  O           2.48531037496184     -0.44614787961364      2.00621732677027
  O           2.48171435252342      1.06101361559087      0.38482586552906
  H           1.86264078993361      1.60866076866081     -0.11534718711277
