18
Coordinates from ORCA-job NEB_product E -38.689557912530
  C           1.97874979926202     -0.01328771497911     -1.60678504948405
  C           0.69141284641427     -0.78268978792775     -1.74232182792442
  O           1.78984152105959      1.13310438020827     -0.84131339879270
  H           2.74314207709164     -0.61614723012757     -1.10346073100356
  C           0.81621629948172     -2.22228570713396     -2.31546268576635
  C           2.46729701287500      0.31309947340594     -3.05128063744453
  C           3.72881933517549      1.11405786047109     -2.97704351717519
  C           3.83676158522616      2.35841022838643     -3.40039890453345
  O          -0.39084767965832     -0.32003699739159     -1.50959867739124
  H           2.65155934119437     -0.61955281044878     -3.58687379885841
  H           1.69182251054402      0.87858418534849     -3.57174666171808
  H           4.57029992055449      0.60461622684394     -2.52889433731436
  H           3.00571696019170      2.88451100995541     -3.84056443997450
  H           4.76288196421426      2.90155136498836     -3.33227393501683
  H           0.89690850240077      1.47228989595300     -1.00003765015555
  F          -0.08308457795112     -3.04486649417986     -1.78261955437282
  F           0.62756568673694     -2.21976835521002     -3.64434682957522
  F           2.02673689518699     -2.75758952816229     -2.09957736349875
