18
Coordinates from ORCA-job NEB_reactant E -38.685111339670
  C           1.78682784061392     -0.03137348467738     -0.33938355470162
  C           1.67718813080055     -0.72640378893744     -1.47552115740913
  O           2.26511046501499      1.24485604884381     -0.24548465698137
  H           1.47673425560675     -0.50653728972417      0.57970321479824
  C           1.12777284049045     -2.13162143417061     -1.43775340564572
  C           2.58417122070665      2.01535800756182     -5.24388135477720
  C           2.79870301625123      0.94464583614382     -4.50466045705441
  C           2.53299518587748      0.87176843390831     -3.03362711714279
  O           1.97701357046500     -0.40989590598500     -2.76171529315023
  H           2.81009105168226      2.03169923986535     -6.29563982354711
  H           2.18432202691930      2.92419107435842     -4.82496451608650
  H           3.19287816593550      0.03327674937418     -4.93030624536152
  H           1.84459749512020      1.66109717582899     -2.71574524065909
  H           3.47430742556745      0.98535165157016     -2.47900797959333
  H           2.24703556629691      1.53130086112309      0.67280361923148
  F          -0.00152416505779     -2.25381015230821     -2.14858899081706
  F           1.99147498322959     -3.02473637277992     -1.93864652633728
  F           0.83530092447955     -2.54766664999524     -0.19468051476535
