26
Coordinates from ORCA-job NEB E -44.076115958940
  C          -0.09656350863234      0.92079220366259      0.75653783846891
  C          -1.43476271633133      0.61676691194386      1.07157455864876
  C           0.16479917870878      2.00021862525894     -0.27584543065677
  H           0.57080129782271      1.07131317560084      1.60193544553384
  C          -1.72028662002494      0.04991149885891      2.45194128229456
  C           0.45683726630766     -0.75849808749519     -0.00364793974124
  C          -0.50778381575045     -0.96851115335406     -0.99618975154233
  C          -1.87648305729839     -1.06544498576002     -0.60975004682864
  O          -2.25011040827671      0.33797915627871      0.09896767025727
  C           1.93712978771860     -0.70342747937341     -0.33546878813763
  H           0.29505265016090     -1.30683720490988      0.92461966123370
  H          -0.29469318028425     -0.67393186304508     -2.01015988331012
  H          -2.10910656765476     -1.76091981915989      0.19441836972807
  H          -2.59802065372983     -1.11536344814775     -1.41595947001118
  F           1.49095178898598      2.28924414966175     -0.34127757641494
  F          -0.21505431751364      1.70618051116692     -1.53282672891925
  H          -0.34864527215812      2.93584952258226      0.00653982454799
  F          -3.05192028637885     -0.20828928707459      2.61014601494108
  H          -1.42732538833742      0.75328985845540      3.23828790578024
  H          -1.19541073561477     -0.90791364710590      2.60332736591855
  C           2.28247343586041     -0.44368528714532     -1.79673771788492
  H           2.35903958481241     -1.67175911586845     -0.04758824345802
  H           2.42570813017549      0.04760547229242      0.28764979743867
  H           1.91650661694194     -1.24898072635618     -2.42884961327933
  H           3.36315415687920     -0.38950093824654     -1.90503216114009
  H           1.86371263361173      0.49391195727966     -2.14661238346719
