26
Coordinates from ORCA-job NEB_product E -44.116380827010
  C           2.58283795110206     -1.14379817368374     -0.57145981533163
  C           1.82200755361025     -1.12474330844701      0.75225372713050
  C           1.83360286287430     -0.22147685214580     -1.54356637461887
  H           3.56297562207578     -0.68036913120767     -0.41804681341562
  C           2.52792977451583     -1.80455172876565      1.91874381466443
  C           2.78287071392780     -2.60164644038610     -1.08770547560538
  C           2.61743421744637     -2.72655874462691     -2.57760867275795
  C           1.84662276179061     -3.63439522649889     -3.14435234317458
  O           0.75170662705048     -0.60089035844552      0.87987447583644
  C           4.16587739953260     -3.15988528120971     -0.69170574748634
  H           2.01556870835288     -3.22969288853056     -0.62080325403312
  H           3.19578180775969     -2.04653472105033     -3.18396007881117
  H           1.25049127759032     -4.32033382339300     -2.56473532917503
  H           1.77080136152270     -3.72323241402570     -4.21376315608519
  F           2.65298504974690      0.19301349875665     -2.54291385795860
  F           0.77925275128529     -0.81910421570577     -2.13126891335910
  H           1.45951405099163      0.67969192507354     -1.03246598146515
  F           1.85325424958892     -1.57814392581314      3.08168310733016
  H           3.54081954066332     -1.40741207496251      2.04814934730408
  H           2.55983553512834     -2.89004851334311      1.77266394759980
  C           5.33728342529799     -2.53224127066047     -1.44126891785068
  H           4.15623553733017     -4.23178060139046     -0.89927993074193
  H           4.32245105771564     -3.03540782954130      0.38076121443849
  H           5.31385042690720     -2.80301424721486     -2.49259654022985
  H           6.27376062187530     -2.89095659177436     -1.02072476824878
  H           5.32934911431763     -1.44708706100761     -1.36800366395495
