26
Coordinates from ORCA-job NEB_reactant E -44.116301055120
  C           1.75764730895045     -0.32748197909468      0.17611907249081
  C           1.41594137117219     -1.59326854205616      0.44786718396024
  C           1.91542104644742      0.39155580217540     -1.12212489355887
  H           1.91000532934549      0.30907185251308      1.03270275106372
  C           1.25306134008614     -2.02440881552414      1.89369609723145
  C           3.84560855452577     -3.12982591478005     -1.07731316350129
  C           2.91714797107964     -2.88366645820045     -1.98445764728610
  C           1.45245289057564     -2.71958902046881     -1.69740773020574
  O           1.13403137807847     -2.66166142071045     -0.31307672263194
  C           5.31366573448641     -3.28303094852327     -1.32454509916736
  H           3.56141567048129     -3.23430305381129     -0.03691414666004
  H           3.16019480166742     -2.77536887272275     -3.02949700193477
  H           0.90891191309163     -3.60384265937144     -2.05161334442909
  H           1.05544059159473     -1.85576003303734     -2.23572154366895
  F           2.92290356470281     -0.08568981440801     -1.90633621404719
  F           0.79508697759960      0.32605721997262     -1.90305287112059
  H           2.12134742869579      1.45955227788000     -0.95789200207061
  F           1.30924322785091     -0.98045351419674      2.77031493904397
  H           2.04996229761396     -2.72360043884996      2.17145231305339
  H           0.28106022579373     -2.51231602425701      2.02079303087586
  C           5.74380866635358     -3.09709196277481     -2.77270650335375
  H           5.61691077046122     -4.27591439707101     -0.97580363906298
  H           5.83700763567114     -2.55515530380021     -0.69624581853432
  H           5.27860982789196     -3.84341614698588     -3.41210009050999
  H           6.82330861918046     -3.20100089431269     -2.85540782304898
  H           5.46450485660216     -2.10779093758398     -3.12592913292692
