16
Coordinates from ORCA-job NEB_reactant E -31.607654385020
  C           2.17801292549388     -0.35799697918322      0.41124286828922
  C           1.80979295801247     -0.55186280551880      1.68520921972762
  C           1.95860711723357     -1.23312437946441     -0.65793525170832
  H           2.70207171459535      0.55505233675606      0.17004697738651
  F           2.11552858241540      0.39905264936969      2.57787158613080
  C           3.09550114061330     -3.54417792098222      1.69829546214620
  C           1.90616552730156     -3.52409294961441      1.11082359111031
  C           0.75950695939286     -2.67413931291462      1.57436431668401
  O           1.16082307720549     -1.52300573955692      2.30561738602312
  O           4.15549985604759     -4.27521477874868      1.30649481066677
  H           3.32831723600363     -2.95076270395446      2.57162464288087
  H           1.70688643487199     -4.12810154735329      0.23792695655744
  H           0.12393880918191     -3.22169841560498      2.27926691386317
  H           0.14821361454068     -2.37498838243774      0.71483063578720
  N           1.80925154960973     -1.90377113966120     -1.57846564329900
  H           3.93508249748058     -4.78366793113080      0.51468552775408
