16
Coordinates from ORCA-job NEB_product E -31.606327797810
  C           2.88225829087789     -1.35738827026518      0.69170665696738
  C           2.15867764457872     -0.42389179873679      1.62362527480728
  C           2.35766544894861     -1.20634144443099     -0.65025680714415
  H           3.94360791730904     -1.07280593873827      0.66165005814052
  F           2.31565636170393      0.86320934848775      1.22625820649047
  C           2.78984940494806     -2.82911433261157      1.17360315355410
  C           1.44921150199373     -3.42524651778381      0.84027240846816
  C           0.50803523044119     -3.65175200092623      1.73585130198325
  O           1.53456867500054     -0.67101976305772      2.59096018661413
  O           3.85571298954307     -3.50604392355828      0.54392630617238
  H           2.93190622116887     -2.82617058559982      2.26734749705141
  H           1.30910146110651     -3.66076302225435     -0.20615313440382
  H           0.64569044455233     -3.40743507280434      2.77593374887223
  H          -0.44290263084601     -4.07304536333790      1.46045475398273
  N           1.93284526743830     -1.10805279874257     -1.70441361991426
  H           3.74081577123525     -4.45503851563994      0.65893400835818
