21
Coordinates from ORCA-job NEB E -44.073575639380
  C           0.31755949620865      0.95513641824506      0.30171106467711
  C           0.26758694594994      0.56767928046901      1.64846284742258
  O           1.49336440488231      0.88209107733803     -0.37285838691153
  H          -0.36497206356689      1.74860363640201      0.00138882950169
  F          -0.91762080836765      0.95700467980104      2.24847451421038
  C          -0.56574461121081     -0.85019989927064     -0.39839096675316
  C          -0.67172465829648     -1.71338420983378      0.68986068122925
  C           0.47156362857597     -2.00773788457082      1.42456904666052
  O           0.85890461538671     -0.37844648724171      2.17678375404251
  C          -1.79870222225334     -0.48739614013562     -1.15368273309168
  H           0.31286859407933     -0.95979980780009     -1.02741328749414
  H          -1.63569961884451     -1.82599345959748      1.17188311457103
  H           1.42006921907927     -2.07245571795950      0.91152525479875
  H           0.38494431417352     -2.60459318248799      2.31820424301228
  C           1.82298908724531      2.00829683380542     -1.16779457440736
  H           2.72998314855818      1.73742794455650     -1.70326448506609
  H           2.01627640844501      2.88179952182052     -0.53942307776353
  H           1.03057655672885      2.24216299383516     -1.88363445413855
  Br         -2.52341626194216     -2.11839326613893     -2.03277953265124
  Br         -3.20589532587427      0.25709698646705     -0.02628372904556
  Br         -1.44291084895694      0.78110068229676     -2.58733812280328
