21
Coordinates from ORCA-job NEB_product E -44.127172798820
  C           0.22235341070973     -0.96365025732090     -1.40199887292311
  C           0.84606196079236     -0.99323228440260     -0.01464975718708
  O           1.17406104924953     -0.64853368381123     -2.37678852282517
  H          -0.60680951379100     -0.23373724627223     -1.38907348208190
  F          -0.06835296744637     -0.63908248780839      0.93179938450334
  C          -0.29877064336251     -2.38904605284196     -1.70141816717463
  C          -0.94901977837665     -2.98930804075660     -0.48443085190087
  C          -0.50543555204595     -4.07997056371662      0.11123090181829
  O           1.94563494047830     -1.26277366960574      0.30082467108104
  C          -1.26047512914204     -2.40638363625425     -2.88218721989537
  H           0.58051243587292     -2.98204141635768     -1.98594672800366
  H          -1.82028490155590     -2.46667997205053     -0.11174527200669
  H           0.36157809062098     -4.61374816663141     -0.24202863523321
  H          -0.99549209675673     -4.48058581323367      0.98064600723232
  C           1.59438184524149      0.69970907451263     -2.37963222728966
  H           2.26111458417434      0.79572540365909     -3.23275897505920
  H           2.13189827563602      0.95321503175059     -1.46145768051043
  H           0.74115230301790      1.37605274459686     -2.50190503393254
  Br         -1.83857858147401     -4.24690666673002     -3.20158298805297
  Br         -2.85774748443937     -1.34176571528024     -2.53975057155473
  Br         -0.45718224740305     -1.75815658144509     -4.52654597900378
