21
Coordinates from ORCA-job NEB_reactant E -44.108493279820
  C           1.05762575453245     -0.31363822783397     -0.29302130628269
  C           1.24173757216258     -1.34215484766301      0.53099111904411
  O           0.93581653420292     -0.48315105763536     -1.63423541073701
  H           1.00192244792119      0.69048238981573      0.10556163963192
  F           1.25679717244139     -1.09368666229698      1.87358516272456
  C          -0.59427948887684     -3.34436806629527     -2.13075671952646
  C          -0.70161232499977     -2.93867531247651     -0.87565940758675
  C           0.20608119200148     -3.43465922067724      0.20875447222705
  O           1.40127615982075     -2.63907897442528      0.22005455857804
  C          -1.34218519693418     -2.79998774375324     -3.28138536982659
  H           0.09397008631677     -4.13695553268297     -2.39879209424068
  H          -1.37912232933276     -2.14176100825761     -0.60033045983525
  H           0.55645148873698     -4.44905428388299      0.01213926493679
  H          -0.28701504679345     -3.39128755572377      1.18628494361730
  C           0.97026235628349      0.70912599410389     -2.39387439115251
  H           0.88779541061891      0.40816609548110     -3.43623957662419
  H           1.91166615435243      1.24488736191687     -2.24672827177922
  H           0.13233065919250      1.36374347476191     -2.13482952701828
  Br         -2.56302833835577     -4.18344155802694     -3.99544170171096
  Br         -2.39588600470183     -1.22554471092996     -2.89153441908557
  Br         -0.08200425858926     -2.32076055351838     -4.70724250535362
