20
Coordinates from ORCA-job NEB_reactant E -41.459580945450
  C           1.84316697220664     -0.08315018221620      0.05102356485122
  C           1.48810706304847     -1.32975699130558      0.35626147302833
  C           1.86099984524763      0.47356453803811     -1.32874782381055
  H           2.12766234716847      0.58715201231463      0.84791636056992
  C           1.48764248936161     -1.80655844376775      1.79467904168436
  C           3.87986825844091     -4.18637820475781     -0.02881117445602
  C           2.63516485435285     -4.11555586326849     -0.46006644461852
  C           2.11611579974515     -2.95899631926087     -1.25614773032335
  O           1.08078499138978     -2.24329953001748     -0.57772726675610
  F           4.32653840467929     -5.23169769361380      0.67692188279962
  H           4.65650531273271     -3.45403683817134     -0.20194539817244
  H           1.93146548356524     -4.89838304642832     -0.22130329213107
  H           1.63451503088166     -3.32501894594171     -2.16762042236834
  H           2.93426679444724     -2.27903970862283     -1.51976018195877
  H           1.42396126271196     -0.22428508760652     -2.03707173002143
  H           2.88417019468441      0.70144150263499     -1.62728402391772
  H           1.29810732019276      1.40488047041457     -1.35168188133127
  Cl          3.17718612463244     -2.04373745227134      2.35201118518897
  Cl          0.74003348473207     -0.60197321369743      2.86782338599469
  Cl          0.61703796577870     -3.32887100245484      1.98003047574850
