21
Coordinates from ORCA-job NEB_product E -45.520666285050
  C           2.28985602040532     -0.24840288011947     -2.07160733579306
  C           1.07610088576291     -1.12891455953795     -2.36959853901818
  O           1.89208558589603      0.51665854179532     -0.96163947533937
  H           3.16296378692875     -0.86682876232430     -1.81140168919450
  C           1.15759551436110     -2.54489557820379     -1.78113141500754
  C           2.61791247248431      0.63266947798157     -3.29687799969984
  C           3.68017264696422      1.61872502656495     -2.90571250922151
  C           3.42920745419265      2.87394933305435     -2.57692532015865
  O           0.12057780729336     -0.76264582792536     -2.98156927531216
  C           3.08073365223836     -0.23632786677674     -4.46553788539643
  H           1.70295035389793      1.16042763180014     -3.58564484388406
  H           4.68814623879301      1.22770549178226     -2.87065543947522
  H           2.43406465023651      3.28713257065795     -2.62128830937732
  H           4.21258422859401      3.55017736117658     -2.28099851644442
  H           2.33532014063634      1.37778435365498     -1.00260638022589
  Cl          2.44490917751105     -3.37422574486048     -2.69981280849455
  Cl          1.59346060681193     -2.48117601570003     -0.07042780102126
  Cl         -0.36178558213744     -3.41218888631359     -1.99283922083055
  F           3.34751851048280      0.55266106532164     -5.55284399525263
  H           2.30601186997150     -0.94666009591053     -4.77060913425084
  H           4.00671397867534     -0.77132463611752     -4.22667210660203
