21
Coordinates from ORCA-job NEB_reactant E -45.522500074850
  C           2.41391142843833     -0.31317073273315     -0.86612785005668
  C           1.34368665426559     -0.43115790962288     -1.66170643501898
  O           3.12245941518945      0.83529141513182     -0.67488973669615
  H           2.73990620425797     -1.18891372626918     -0.32277588731846
  C           0.66258133763659     -1.77030795036791     -1.74903312642295
  C           2.96569469382034      0.26552125063479     -4.24393957316995
  C           2.72538563894748      1.38875102759174     -3.58958905663096
  C           1.48277960547830      1.66020405318160     -2.79561589768614
  O           0.74705096075384      0.49503230534480     -2.46073676695669
  C           4.21126775809598     -0.01599719829314     -5.01911982845305
  H           2.25287806206373     -0.54650408459658     -4.25961754100142
  H           3.44772357580417      2.19166616400123     -3.59289313532846
  H           0.78016911883531      2.25448945800075     -3.38994279936542
  H           1.73901356056592      2.22318505856838     -1.89257228176136
  H           3.93973880090802      0.64192823490433     -0.20461181599341
  Cl          1.73546487011623     -2.94276631546448     -2.58461997560747
  Cl          0.31936412832015     -2.43118996740154     -0.13472168321346
  Cl         -0.84885232121481     -1.67384191393114     -2.64757427480903
  F           5.12640234593778      1.00195830297465     -4.92090578960276
  H           3.98787311154655     -0.14003654790862     -6.08627123447321
  H           4.70440105023307     -0.92324092374546     -4.64783531043399
