16
Coordinates from ORCA-job NEB_reactant E -25.516423902600
  C           2.01308674666098     -0.56974316428540     -0.21536948066977
  C           1.15246676340975     -1.15694286933550     -1.03703898725508
  I           3.72489404949275      0.59875603092635     -0.60025737199634
  H           1.85184790037754     -0.66471823919022      0.84305405070388
  H           0.33570425251408     -1.69561840688946     -0.56135271636442
  C           3.44005350106125     -2.67543233303118     -2.78403842904212
  C           3.27258189605041     -1.44364827180754     -3.25799632094026
  C           1.95724510238132     -0.72093293337845     -3.26159935872684
  O           1.00039332101262     -1.26127573965045     -2.36368796635997
  N           4.65484024573408     -3.31834651608917     -2.66504789317346
  H           2.60467632339729     -3.22814263518108     -2.37449293125328
  H           4.10352350075234     -0.88956896903911     -3.66826963541988
  H           1.47220721432328     -0.81278594504077     -4.24233163332285
  H           2.10664830747504      0.34740202991560     -3.06598692738374
  H           5.41056604867354     -2.90094142701344     -3.18738844293063
  H           4.63246482668372     -4.32396061091019     -2.71439595586523
