16
Coordinates from ORCA-job NEB_product E -25.512296044270
  C           2.43693477378704     -1.44819859077347     -0.92990192317409
  C           1.34686393420806     -2.26673625694249     -0.29462779921053
  I           1.60451636813319      0.55510433895873     -0.86118498262737
  H           3.32441495374775     -1.41390285473006     -0.29779564321070
  H           1.28557001538844     -2.12416567730289      0.80218865545928
  C           2.78178140462383     -1.89704837085142     -2.35006415462673
  C           3.57692254731807     -0.86283054516297     -3.09763340712366
  C           3.24524760066012     -0.38770012212828     -4.28330280318944
  O           0.57421435621033     -2.96032203583610     -0.88526868368324
  N           3.50319896647066     -3.15561677749434     -2.18843373347358
  H           1.84630838414249     -2.11205991480417     -2.87754405262765
  H           4.49359847892596     -0.55055825024272     -2.61077067590477
  H           2.33816239381217     -0.69060024570309     -4.78027962343130
  H           3.85777738088637      0.33046420797174     -4.80079280411244
  H           4.46953457688281     -2.98365758161894     -1.92953433630684
  H           3.49615386480271     -3.68967132333954     -3.04785403275695
