22
Coordinates from ORCA-job NEB E -46.351892226140
  C           0.74427487505933      0.92935232607646      0.21362336163491
  C          -0.16514267626097      0.17967078616509      0.97972493309083
  C           0.26843161627415      2.20708563147543     -0.41378165048352
  H           1.74362546838762      1.03811026234427      0.62020798847766
  O           0.37858427036418     -0.51713823012045      2.00168644692411
  C           0.87639405146017     -0.39337913717624     -1.33331481673428
  C          -0.45649103016045     -0.53715879983052     -1.71756770622894
  C          -1.35485023149655     -1.10171839371028     -0.78156064790183
  O          -1.34674755433133     -0.07488041035831      0.56346615395115
  C           1.81121572675920      0.17441334389622     -2.24204097537712
  H           1.32507659243525     -1.16162714918570     -0.70748212600280
  H          -0.84549434618799      0.10130046247530     -2.49570175432036
  H          -1.04542267378065     -2.01538507634675     -0.28422280022414
  H          -2.40605452172188     -1.08596584442274     -1.03433954466861
  F           1.16741436094558      2.72895066724800     -1.25666820800607
  F          -0.88405004831863      2.12453102560666     -1.08201542444449
  F           0.07417474560253      3.14737078113671      0.53801241768720
  C          -0.46477996887839     -1.41292831265427      2.71122301989159
  H          -0.08897256873784     -1.44384101772483      3.73171320553317
  H          -0.41206090785330     -2.41247104068388      2.27262347372333
  H          -1.49845842503814     -1.06349216131899      2.69767153339450
  N           2.57933324547812      0.58920028710882     -2.98125687991628
