22
Coordinates from ORCA-job NEB_product E -46.408597206670
  C           2.55655612140553     -1.58378527439482     -1.35305798452313
  C           1.55994478709170     -2.50925515294409     -0.63232170475014
  C           2.46316175079332     -0.16061345599539     -0.80735212465907
  H           3.56725536754010     -1.94261041743602     -1.11748523079587
  O           1.39871847521417     -2.15047064229861      0.62836540590951
  C           2.32095049394318     -1.66560440633657     -2.88075732999710
  C           1.13200021753102     -0.84709823149431     -3.32674890317481
  C          -0.04550370844100     -1.38365408892420     -3.57964843462857
  O           1.02898681699304     -3.44505447408456     -1.16127304132658
  C           3.50792648153481     -1.25340856681810     -3.59855910878022
  H           2.13403287346918     -2.72356539871765     -3.10890924307220
  H           1.30192394198724      0.21588313235536     -3.42569335470103
  H          -0.22061471001736     -2.44251034298768     -3.48127740758789
  H          -0.88279366766345     -0.78053554651656     -3.88422181458578
  F           3.08658682029948      0.72657601730338     -1.59308721302762
  F           1.20101712475538      0.26928259412585     -0.67825048728764
  F           3.03304068050169     -0.05285492043372      0.39939818139766
  C           0.49974564056298     -2.93611460824745      1.40672259954853
  H           0.46929683739379     -2.46998584177462      2.38729256714071
  H           0.86296306613177     -3.96272956900705      1.47679194946654
  H          -0.48998378308149     -2.93776400439036      0.94759839869133
  N           4.43818837205492     -0.93502680098284     -4.17902571925660
