25
Coordinates from ORCA-job NEB_reactant E -43.841047751960
  C           1.21455326526090      0.29878331414868     -0.20072538762186
  C           1.45312980611938      0.82789165627032      1.01345902965657
  C           1.66106126359616     -1.05614800630703     -0.57875335450415
  H           0.68978641010831      0.86482368364810     -0.94884706860093
  C           1.02127233050998      2.23606000334652      1.31705464727738
  C           4.45623473765925     -0.42347359119787      4.17790770578303
  C           3.15420809808395     -0.53316689326558      3.92054157551071
  C           2.36506383437150      0.53339140850919      3.23623372216829
  O           2.12475457595756      0.08296996474665      1.90242011913843
  N           5.20733718136220     -1.35334791736675      4.85865624965613
  H           4.99100358573205      0.48555127485507      3.93423759600069
  H           2.62344051426614     -1.44509676203849      4.14707601601087
  H           2.92622532569728      1.47460910203968      3.22580668225943
  H           1.40487965484758      0.68777008304840      3.74720296059431
  Cl          0.96291604217697     -2.30971838555794      0.49311900199583
  Cl          1.18257249732963     -1.43648464937073     -2.24060506007119
  Cl          3.44361336621057     -1.21988332213736     -0.47123433812755
  C           2.12281165879046      3.22941651734808      0.93598515540422
  H           0.77598523007361      2.34399507553370      2.37390195546991
  H           0.12528931013587      2.45731507750231      0.73703063176706
  H           3.03886745809974      3.03069456415657      1.48717526781172
  H           1.80161313702188      4.24482594984994      1.15458924453968
  H           2.34279465663443      3.15254064860519     -0.12555447663228
  H           4.79741455196439     -2.27311184400888      4.92047066498767
  H           6.19537150799021     -1.35880695235781      4.66525145952601
