25
Coordinates from ORCA-job NEB_product E -43.834370916200
  C           2.54060613947972     -0.05744945985576      1.16471568260006
  C           1.23831588399513      0.72749148866864      1.40686819548400
  C           2.17704378522486     -1.42972046447101      0.60824049484781
  H           3.12534834839428      0.42667194617181      0.37801848074654
  C           1.11818324327643      2.01889134621602      0.63773132252118
  C           3.40497802359731     -0.03688152664172      2.46662308210235
  C           2.60065722623790     -0.18029450868313      3.73270881013431
  C           2.52919727676700      0.76404610207737      4.65209200520488
  O           0.40010583842807      0.33671504300408      2.17150822295523
  N           4.47876634438295     -1.01343629261503      2.37150482567821
  H           3.87922411136678      0.95263891859227      2.48001777100617
  H           2.12457977260991     -1.13537161280513      3.89206732643008
  H           3.00036341428071      1.72558500628903      4.52034286061000
  H           1.98859023675410      0.62102852517534      5.57130378205127
  Cl          1.48762997433416     -2.54281869216278      1.78808619056933
  Cl          0.94606164122887     -1.18866218173782     -0.68336958318857
  Cl          3.57498878369944     -2.20931565499498     -0.16657428539709
  C           2.12597023481955      3.05542803897771      1.13670158208503
  H           0.10468558550378      2.39922493323709      0.77251893464778
  H           1.28534454154725      1.82136597178827     -0.42243710007704
  H           1.99478751838343      3.22324008289193      2.20273612681975
  H           1.96765178400755      3.99706953478524      0.61758208344468
  H           3.14812850902495      2.73349635174740      0.95525881784928
  H           4.12335037597963     -1.95114769185971      2.52681073755543
  H           5.17594140667623     -0.82759520379515      3.08284363331933
