18
Coordinates from ORCA-job NEB_product E -34.262808629910
  C           2.37603641128680     -1.33227717179673     -1.07782814594843
  C           2.44302684930225     -2.23714886364993      0.15003290376083
  Br          0.92195270595176     -0.02740681060850     -0.91570289825139
  H           3.29498426641652     -0.73485004517637     -1.10092238705557
  C           2.22805617766026     -1.52466624080440      1.47460477855621
  C           2.22315458422860     -2.10943183187040     -2.39718769595134
  C           0.98415904463758     -2.96998906471604     -2.41099188263243
  C          -0.07529717903593     -2.68213544258568     -3.14153339801218
  O           2.67870569512751     -3.40590581415542      0.05871121699848
  C           3.40282957337788     -2.92658484161561     -2.60466963100152
  H           2.17281812156974     -1.38285215961690     -3.21955077768328
  H           1.01446163368265     -3.83719748100083     -1.76760307279673
  H          -0.95539593383289     -3.30047316485035     -3.12090146103459
  H          -0.11305857239230     -1.81853818543726     -3.78623965453853
  F           2.68712939098436     -2.28609425698884      2.50473955159482
  H           1.15477969838421     -1.36411328363026      1.64073587800388
  H           2.75415333248932     -0.56366798600236      1.50723438258439
  N           4.33600420016168     -3.55596735549414     -2.79472770659262
