24
Coordinates from ORCA-job NEB E -47.236432267170
  C           0.20839121622701      0.70481248077819     -0.06626223377466
  C          -0.94459697853889      0.78422693858403      0.75188441748685
  O           0.07457565120356      0.70872824969932     -1.44057404889558
  H           1.07165672512438      1.27700627348893      0.28842541944374
  C          -0.79942292330370      1.12124070348841      2.21982305303707
  C           0.60790123956993     -1.11837592931275      0.16404521320751
  C          -0.57218136215083     -1.73992558124697     -0.28162798535006
  C          -1.76587778699006     -1.49130317655046      0.44508330472395
  O          -2.00133211205755      0.11430351724506      0.40220420229654
  C           1.87813667086647     -1.42915670084004     -0.57216577007261
  H           0.79155787898774     -1.11667020876810      1.23946532278660
  H          -0.65740710416436     -1.99472109924410     -1.32739217949930
  H          -1.72242030424600     -1.65143451533469      1.52097545292299
  H          -2.67934974291727     -1.87157274440256      0.00601138707023
  C           0.23183413405702      1.98244877610957     -2.02680950193289
  H           1.19218200292070      2.42967149929048     -1.74536477612075
  H          -0.57896812555706      2.65382700061143     -1.72889896239107
  H           0.20362165417250      1.81940987461502     -3.10196550277611
  F           0.42456048980606      1.66213015742197      2.50204021908424
  H          -0.90692503433183      0.21831090807563      2.84000803599162
  H          -1.56082438756563      1.84934050594056      2.52017801010290
  Br          2.42547109902846     -3.25446338412605     -0.05021255011600
  Br          1.73383700014755     -1.40686547013238     -2.49450417340588
  Br          3.34558009971180     -0.25096807539053     -0.06436635381930
