24
Coordinates from ORCA-job NEB_product E -47.270443326510
  C           2.62266886581290     -1.17112685404892     -0.04707916445995
  C           1.32113411236714     -0.93115291451298      0.74178730303467
  O           2.50889298177413     -0.78416047056419     -1.38677293890948
  H           3.44306469711721     -0.61953967177625      0.44791880124166
  C           1.56631338912685     -0.57825493395376      2.20134008937690
  C           2.89688756553681     -2.69176500126989     -0.00253191102236
  C           1.81635329963867     -3.42856980007815     -0.74540479756704
  C           1.14522613699968     -4.44048799888300     -0.23047746151150
  O           0.23696429712913     -1.01344690906488      0.24584403420803
  C           4.26100509438396     -3.04691667719331     -0.58324614299182
  H           2.90884897304058     -3.01084388196364      1.04853667031835
  H           1.61883948824513     -3.06162521787499     -1.74153967641630
  H           1.32938800998219     -4.80798943200250      0.76655138945957
  H           0.37958017391470     -4.94535283335459     -0.79167028405167
  C           2.42072433433136      0.60687320821163     -1.58900042211646
  H           3.28304383112178      1.12229986465565     -1.14905376354368
  H           1.49820110717197      1.01585804553512     -1.16672650179115
  H           2.42221566219637      0.74841255939754     -2.66703473062945
  F           0.41402296295990     -0.62906150702553      2.92419899541957
  H           1.95303009659940      0.44708289336803      2.26765299228699
  H           2.28102758666727     -1.26797903835906      2.66477813842321
  Br          4.57437500820320     -4.96273361596132     -0.34129010395016
  Br          4.45014503014260     -2.65558659832246     -2.46268873495003
  Br          5.69534729553706     -2.12233321495854      0.37970822014208
