21
Coordinates from ORCA-job NEB_reactant E -46.515649878520
  C           1.93221263420617      0.13262233375409     -0.14982581731042
  C           1.46456751779942      0.85396109375304     -1.18229363294726
  C           1.70670639890584      0.29606568623477      1.32221730618168
  H           2.57868724689939     -0.69952709231277     -0.38792414928855
  C           1.84721465128262      0.38602421407977     -2.48320433575617
  C           1.55922953994100      5.08086820109703     -0.27218720280582
  C           1.63869612562140      3.77339569665794     -0.09766652272421
  C           0.46293245439874      2.85087876621684     -0.22063631521261
  O           0.65259618230045      1.92285888665568     -1.28095122106888
  C           2.72994070268549      6.00979799699060     -0.15645327544331
  H           0.62716208454236      5.58244052119583     -0.48853525920691
  H           2.58782007516756      3.30670443985904      0.12745315661272
  H          -0.43309920061888      3.40568856741194     -0.50945123793985
  H           0.27639860366934      2.34996541640018      0.73247274456075
  F           2.29115841669998     -0.72872550001275      1.98047629893846
  F           2.27681370731598      1.43083758825913      1.81827052653141
  H           0.64337123012366      0.30461252922348      1.62027588797144
  N           2.15610551155623      0.00779793353258     -3.51707227016230
  F           2.47558194580955      6.98171811459263      0.75895435574878
  F           3.85135211101625      5.37935264404406      0.25553848514692
  H           2.96065206067742      6.51636196236691     -1.11045752182585
