21
Coordinates from ORCA-job NEB_product E -46.526092340370
  C           2.23490978286604      1.84999417501981     -0.19539046693772
  C           2.56275160088432      1.36843186489274     -1.61469962801430
  C           1.25264458130860      0.82644501343891      0.38583021281169
  H           3.13059233626337      1.87073308917034      0.43423500474654
  C           3.95787642126959      1.01700704326647     -1.78847437231584
  C           1.59315377698769      3.25218816796997     -0.27503411481713
  C           1.02958565503049      3.70102206820295      1.04417926585228
  C          -0.23313461230214      4.03928099940835      1.21840758600892
  O           1.73270256669384      1.28104796696686     -2.47695241616093
  C           2.65478753735556      4.26174328837990     -0.72882426974923
  H           0.80916264116419      3.23787810486057     -1.04091633153198
  H           1.73805280510513      3.74137944310340      1.85889995538033
  H          -0.95196659175467      4.00112337125844      0.41614156065935
  H          -0.60001263315181      4.36433322619808      2.17540113589275
  F           1.77319364374957     -0.41843849527961      0.28118491004053
  F           1.04751314063103      1.03155115307388      1.70320236256152
  H           0.27690992399206      0.83363807523294     -0.12329580767698
  N           5.06764073722541      0.76293638490953     -1.89595830343030
  F           3.71081498085806      4.26734770444234      0.11509052045653
  F           3.15033978978795      3.93187726149736     -1.94658320825941
  H           2.26128191603571      5.28708009398679     -0.78994359551663
