20
Coordinates from ORCA-job NEB E -46.201576158570
  C           0.51564760856176     -0.72470038702646     -0.46499890707804
  C          -0.80959921998736     -0.29116612796509     -0.66106771646815
  C           0.77476720841283     -1.91119056804317      0.42658643489889
  H           1.12976194248372     -0.80053457377233     -1.35921931521933
  C          -1.16504698597370      0.35984524663080     -1.98060838009829
  C           1.27590881367448      0.74093470288423      0.59807934985411
  C           0.21811094354698      1.57147876842695      0.97746403606276
  C          -0.91063889228249      0.94667149676034      1.55448589081989
  O          -1.56810838501943     -0.00508075221310      0.33469033953092
  F           2.20492607098466      1.27652126726769     -0.21268936994114
  H           1.75288222164045      0.10016364057951      1.33426937003521
  H           0.06395829694539      2.45917396497464      0.37705402618617
  H          -1.76132709950765      1.57655214142311      1.77989775176829
  H          -0.72792633722025      0.19212364239477      2.31038312315006
  F           2.08743803606788     -2.12556996173829      0.60810286908720
  F           0.23844518496111     -1.83637270942749      1.65156342390053
  F           0.28699654863269     -3.03172397747802     -0.12845342277978
  F          -0.40254546739839     -0.11750893964300     -3.00547039098903
  H          -0.98773611478864      1.44405139311311     -1.91517862804692
  H          -2.21591437373405      0.17633173285180     -2.22489048467336
