23
Coordinates from ORCA-job NEB E -48.818201366950
  C           0.50472682810745     -0.32339711113510      0.76560712072209
  C          -0.84835647608504     -0.24370798561362      1.15783092792119
  C           1.45249972289890      0.71941391154439      1.30956487318820
  H           0.95147018506741     -1.30974916254027      0.88084091934827
  C          -1.62418391441348     -1.53769667326127      1.32398350949890
  C           0.30466495560776     -0.12899347174983     -1.15102157395941
  C          -0.43490596118219      1.05303681605656     -1.24445144324278
  C          -1.73040576338819      1.11830335827601     -0.64322095560576
  O          -1.53965456312499      0.83648889724396      0.92309294302951
  C           1.64001768060847     -0.20748433873803     -1.83672143869330
  H          -0.25396908266760     -1.05430546244445     -1.25295918198284
  H           0.08124864203380      1.97567459127010     -1.46011537944961
  H          -2.41821400320995      0.31990101126005     -0.91324907824776
  H          -2.20785744039592      2.09142385497390     -0.65106326221510
  Cl          1.01560194289920      2.39244407399674      0.99100102556912
  Cl          1.45318512486966      0.50787174440034      3.10646918557216
  Cl          3.12934808747673      0.45468955651919      0.79357935225429
  F          -1.79905779582087     -2.18520532155551      0.12861704525308
  F          -0.95399282267842     -2.41093032378443      2.10822646447408
  H          -2.62047294272841     -1.36408204436362      1.75415080238233
  H           2.25188684929367     -1.00730253343837     -1.43084778272780
  H           2.18262773878718      0.73041185471984     -1.76965525144933
  H           1.46379300804484     -0.42680524163659     -2.88965882163951
