29
Coordinates from ORCA-job NEB E -43.019796062090
  C           0.26040164639058     -0.98734373801653     -0.02611130237618
  C          -1.11731251797440     -0.74016484117976     -0.09112022227744
  C           0.81372286578614     -1.97767775852501      0.97216475457846
  H           0.76756411297144     -1.12071326286735     -0.97558397165721
  C          -1.69524883665941     -0.25176230434778     -1.40123913315284
  C           0.92537120247448      0.77420763512758      0.69184987472366
  C          -0.21645935119716      1.45459236058270      1.11998053531153
  C          -1.13299882528517      0.77099782006495      1.94737663258949
  O          -1.77272376288279     -0.46730323048389      0.98504153767657
  C           1.77564247857952      1.40219148133199     -0.38815212787672
  H           1.49982562787836      0.28015282465178      1.46564182682555
  H          -0.61546649936609      2.22112489188671      0.46422597047876
  H          -2.04547430978561      1.28557409004670      2.22007314253011
  H          -0.72260769260938      0.17477772945073      2.75266219531330
  F           2.16927023010858     -2.04572110806523      0.87763063001166
  F           0.55637400742786     -1.70462665137867      2.26975379554718
  H           0.43046062701923     -2.99472312092944      0.77612563996403
  C          -3.18798559948709     -0.54591972555624     -1.50243643721799
  H          -1.15789996370485     -0.69644914869675     -2.23917414335403
  H          -1.54120315106057      0.83528233710347     -1.43108893383489
  H          -3.35876155677675     -1.61841899662559     -1.55602121853963
  H          -3.61031303612440     -0.08058851429876     -2.38946848534491
  H          -3.69932008987126     -0.16155755935632     -0.62388678976258
  C           3.11906335822039      0.71104637129969     -0.58465663568477
  H           1.95498566993838      2.44366226127727     -0.10519356773666
  H           1.22141193053109      1.41825802147327     -1.33013401174450
  H           3.68839413168270      0.71854762860632      0.34163244507936
  H           3.69876292139240      1.22570850706794     -1.34753606463981
  H           2.99252438238377     -0.32315399964378     -0.89235593542951
