29
Coordinates from ORCA-job NEB_reactant E -43.061028934450
  C           1.80951239702517      0.79227948936753     -0.95650160791501
  C           1.02617019358934      1.88205396280167     -1.00213354631199
  C           2.95701100066384      0.41897592604577     -0.08217027271190
  H           1.56731635853192      0.02014077021344     -1.66933776090481
  C          -0.12373834310879      1.89411030274773     -1.98697145603634
  C           4.35442009454499      4.14149826968065      0.60075507008947
  C           3.17260270101484      4.02882050141487      0.02103272254887
  C           1.97338313733852      3.39441104528274      0.66540954551606
  O           0.99309518274576      3.01376599900260     -0.29079909335896
  C           5.55023403872423      4.77964351462121     -0.02697465955426
  H           4.51034539608649      3.73191102315124      1.59009051847445
  H           2.99818549540228      4.42465737069317     -0.97043135439478
  H           1.45229065838691      4.13965892844883      1.28054226042491
  H           2.25779280431651      2.56744613033801      1.31644869106635
  F           4.03250961404917      1.25032182187770     -0.19070981944157
  F           2.64661312079345      0.41079659262806      1.25253259306677
  H           3.31823248695355     -0.59330903130850     -0.31890229112732
  C          -1.36132251509394      1.24237218767498     -1.37105564115260
  H           0.15900512884389      1.36652717021055     -2.89722685763989
  H          -0.34867910454302      2.93167179306246     -2.23496449934549
  H          -1.15734609053012      0.20564074372526     -1.11480338996927
  H          -2.19019735532913      1.27178599802531     -2.07379917460032
  H          -1.65338454541265      1.77052141514004     -0.46721356123728
  C           6.69723054859733      3.77582895069345     -0.13976123297047
  H           5.87303056193392      5.62507977093400      0.58799149476177
  H           5.29129062666974      5.15843228982451     -1.01722633679352
  H           6.99727494534361      3.42980913121967      0.84649231579755
  H           7.55772207026525      4.23138838820694     -0.62434156652180
  H           6.37959939219692      2.91425954427614     -0.72127108975863
