20
Coordinates from ORCA-job NEB E -37.760493665320
  C           1.15513208898754      0.04680408933160     -0.50824569486787
  C           0.71023464405732      1.12847278081258     -1.25674861984787
  C           0.89463712282456     -1.33309749575402     -1.05720262135994
  H           2.11966168200303      0.15651068719673     -0.02505306205679
  F           1.29937984514027      2.33438353208876     -0.97366455631327
  C          -0.20955526083014      0.23157359178510      0.97002692104767
  C          -1.39899939023211      0.22917210969263      0.25544594167835
  C          -1.64620251355420      1.29844349739066     -0.64637790545079
  O          -0.43930639714828      1.18869515128997     -1.78375329350050
  C           0.08575837975454     -0.86273525782665      1.96485212442605
  H           0.16630555175747      1.19259909753809      1.30898036836797
  H          -1.90879911971959     -0.70993781301058      0.09399347650381
  H          -1.45702331440301      2.30292320645598     -0.28050738395728
  H          -2.53145067222244      1.23233880849890     -1.26489852218411
  F           1.96520850230285     -1.71354331743910     -1.83226777723446
  H           0.01388237781621     -1.34115124517395     -1.70587543518518
  H           0.80779344891110     -2.08835507291443     -0.27155620664180
  F          -0.29072615415398     -0.43174256217390      3.21594674603325
  H           1.15457308338397     -1.09007438032043      2.03326180903268
  H          -0.49050390467509     -1.77127940746794      1.76364369151009
