20
Coordinates from ORCA-job NEB_reactant E -37.789762194980
  C           1.75288134692382      0.01422508867155      0.00004111529851
  C           1.09844338892205      0.67077841196073      0.95013808919535
  C           2.00416730913449     -1.45494680111023      0.05696336434339
  H           2.15859351064386      0.56527890750356     -0.83095123478306
  F           0.92042571420280      2.00507186990431      0.83997077549871
  C          -0.36113512610651      0.33710497211040      5.37672309476149
  C          -0.60024468657835      0.13404713686076      4.09276278573100
  C          -0.05203065164947      0.98676865313992      2.99576497311103
  O           0.53822955892613      0.11993973907976      2.02635480769902
  C          -0.92500790681462     -0.49426427283415      6.48305825966318
  H           0.26577632545336      1.15018675344336      5.71593214383353
  H          -1.22150186604422     -0.68865646288674      3.77042751796978
  H           0.69644211085846      1.69082958276592      3.37837717545152
  H          -0.86452226542866      1.55921333663803      2.52544812510961
  F           3.36044891259278     -1.71196424785185      0.07062771352382
  H           1.61250894018544     -1.96441548010416     -0.83116598038551
  H           1.58730504301528     -1.89305723176522      0.96724101939592
  F          -1.74689412417375     -1.48664214716078      6.01797017984377
  H          -1.52440684413616      0.12055174583473      7.16659609851599
  H          -0.12267868992674     -0.98434955419990      7.04911997622292
