22
Coordinates from ORCA-job NEB_product E -28.553353467560
  C           2.06573524552857      1.97436762715316      0.21985633797361
  C           0.80478118108261      2.39800209186149     -0.53809747393186
  N           1.85139966084179      0.72143856932162      0.93019624556229
  H           2.89682899240065      1.82550482531647     -0.47786651930172
  C           0.98535066494698      2.67485390509004     -2.00797547849146
  C           2.44061079444127      3.06920632096861      1.24278885367520
  C           3.61833795131978      2.61321281106008      2.04931847044005
  C           3.61254520852460      2.46942211876515      3.36015268475175
  O          -0.26773878492467      2.44881877725371      0.01322257554418
  C           2.75938673772583      4.39186947555855      0.54357929141058
  H           1.58099081771195      3.21352641451373      1.90514850179462
  H           4.51355650162719      2.40833594615558      1.47791983118685
  H           2.73098817596124      2.66561301096966      3.94817743023018
  H           4.48500468549434      2.14857901094521      3.90314932789541
  H           1.10309150730763      0.84170130943234      1.60597131896508
  H           1.56633496474928     -0.00793085898803      0.28444489745642
  H           1.78955371939121      3.39092943154243     -2.15862458285888
  H           0.06160541181037      3.05275388801117     -2.43882562105537
  H           1.26322733900972      1.74915040536945     -2.51000624637702
  H           3.56542197972335      4.26176511063109     -0.17627334093120
  H           3.07429447107126      5.12841534592029      1.27922216349023
  H           1.88289277425505      4.77706446314819      0.02722133257105
