22
Coordinates from ORCA-job NEB_reactant E -28.543981230190
  C           1.23019138433599      0.02687565895673      0.00051766941234
  C           1.85338973715797      1.20174086731526      0.12679718156829
  N           0.79786987656445     -0.75916136357191      1.06811053696979
  H           1.07522280628303     -0.40315554164767     -0.97680709319589
  C           2.40609676735749      1.96391496152332     -1.04026874004928
  C           2.42920215171043      4.57288698264497      1.12747130695840
  C           3.40367025638124      3.73164723983404      1.42706686522151
  C           3.19499386691571      2.28460720720590      1.78217845392098
  O           1.94091614124975      1.75896395148689      1.40045352634389
  C           2.62014716748479      6.01270810070619      0.79045924257668
  H           1.40801616807010      4.21420857984766      1.11445558635237
  H           4.43441253829625      4.05986408854498      1.45999869695034
  H           3.22772258145970      2.18213128009412      2.87598476500805
  H           4.01067820272524      1.67427519038783      1.37059587409848
  H           0.82868848839081     -0.24759209265490      1.94028864817818
  H          -0.09771952504856     -1.20243763331585      0.92108447553463
  H           3.47748094554160      2.13426707634522     -0.93523919522268
  H           1.92458042290366      2.93801717227117     -1.12097857943905
  H           2.23205027242838      1.40534031707991     -1.95512598659759
  H           2.24226032966784      6.22115527270922     -0.21054041579981
  H           3.67122535565791      6.28818293972675      0.83334578354803
  H           2.06310406446621      6.63745974451015      1.48825139766234
