20
Coordinates from ORCA-job NEB E -46.101148771220
  C           0.96637629893138     -0.40295731083339     -0.18202316524223
  C           0.72953383324946     -0.47630962718942     -2.49276123169928
  C           0.71509127060343     -1.73600104102557      0.46777245092936
  H           0.57999772895451     -0.75922458635546     -1.37099695898288
  F           1.47524324801791     -1.39935542622637     -3.03943253651209
  C           0.05933137679113      0.72496656753905      0.20799189032486
  C          -1.27913669447746      0.34941977936639      0.78422997649490
  C          -2.40768726868178      0.44562208582449      0.10791974181705
  O           0.35078023568288      0.52170989487245     -2.96813916032992
  C           0.84705432817163      1.63418827901124      1.18164049615587
  H          -0.08149425624739      1.33960382947137     -0.69240381277018
  H          -1.26016375994267     -0.03073853686778      1.79598868423109
  H          -2.43652805093549      0.82157440572912     -0.90312235299506
  H          -3.34947014181344      0.15037260751162      0.53543512157058
  F           1.56787029290624     -2.66413613089525     -0.01787927428485
  F           0.90297296518369     -1.68258255789815      1.78259668887359
  F          -0.52070680044363     -2.28285705937399      0.26463825887566
  F           1.01625692410419      1.03790391352592      2.39503099783694
  H           0.28203361668300      2.55490013600161      1.35819776638817
  H           1.84264485326241      1.85390077781211      0.78531641931842
