20
Coordinates from ORCA-job NEB_product E -46.259760847800
  C           1.87791925098143      1.83614600444637      0.78210496472087
  C           2.81644664190571      2.37642050609328     -0.27627603595814
  C           2.66387645855376      0.85685425871988      1.67184817481665
  H           1.11853668354578      1.22333876895046      0.27770297901129
  F           3.13696255040626      1.41940665250732     -1.17268571626420
  C           1.17358803562225      3.00045418493407      1.52458608686036
  C          -0.09240319934256      2.52371126301504      2.18845973005086
  C          -1.29757701284556      2.82941384765259      1.74876269154831
  O           3.23699435124885      3.46899408798535     -0.39906661689759
  C           2.07186888360749      3.72799531689583      2.53278020146520
  H           0.91681399988826      3.73762877788735      0.75549003388580
  H           0.04317128301928      1.91515151636117      3.07000581663284
  H          -1.44996262007413      3.44225755303587      0.87471794249596
  H          -2.18435019057213      2.48027536482055      2.24758082355445
  F           3.00482332583438     -0.23610120666205      0.97078103551107
  F           3.80070392339520      1.37537967960103      2.13737240442991
  F           1.95413855893381      0.42143221141069      2.71004807031186
  F           2.28155531672668      2.97307479031446      3.65494366036201
  H           1.57709817835359      4.64610988450682      2.86495386940469
  H           3.05269558081165      3.96155653752393      2.10868988405780
