20
Coordinates from ORCA-job NEB_reactant E -46.244782146830
  C           2.16413822814103      0.23344376422933      0.17679391668842
  C           1.81977287219953      1.35195839998413     -0.47111577727219
  C           1.55322891270259     -0.37335043461403      1.38503050328953
  H           2.97055932280825     -0.34467949045205     -0.24352776089276
  F           2.50751711885596      1.60809023996826     -1.59386489052285
  C           0.94248279503300      4.49459525161427      2.38984887519234
  C           1.21622931313113      3.31879326900822      1.85088879137241
  C           0.28847838260789      2.59404714712847      0.92456759669126
  O           0.92523362342236      2.30339032333817     -0.32198852560166
  C           1.85184240819357      5.22747171737569      3.32110945822719
  H           0.00978480327190      5.00464306020145      2.19318641528307
  H           2.15521976781895      2.82853567102416      2.06492225803120
  H          -0.55535784727315      3.22955127312718      0.64684852287720
  H          -0.09921277359442      1.68472989736198      1.39052135431238
  F           2.09622499289376     -1.56650198075552      1.64144447881919
  F           1.69940796145499      0.35456586774813      2.51280388445149
  F           0.22158000410479     -0.58344358304556      1.27119572712227
  F           3.04051796692066      4.57399052610789      3.50481069978451
  H           1.39056131762724      5.33593609974220      4.31105864161681
  H           2.09269082967995      6.22203298090763      2.92466583053022
