23
Coordinates from ORCA-job NEB E -43.823650738950
  C           0.22489409256621      0.15751348105038      1.08722302698010
  C          -1.17682572779065      0.00029343967750      1.24034722468342
  N           0.72825012437289      1.48381263713249      0.86507965500452
  H           0.87672815930817     -0.39187601914687      1.75903564253259
  C          -1.69141987934654     -1.10774129887392      2.14357143249281
  C           0.50214713820103     -0.68836920860803     -0.69874735321774
  C          -0.36549271017948      0.11557153842054     -1.46817673671946
  C          -1.73248124470786      0.03347197749546     -1.26427466310182
  O          -1.99811219351724      0.57761774545219      0.48532195090982
  O           1.83542290846999     -0.76383206624460     -0.86629702198365
  H           0.14349481138021     -1.66438265827387     -0.37955403652471
  H           0.02594386817233      1.00184438765292     -1.94191530331373
  H          -2.18965685722993     -0.92603724684017     -1.06698099465408
  H          -2.36960058977000      0.74929745018671     -1.75721644186880
  O           1.73781209132771      1.77467361712923      1.47803127025924
  O           0.13500868355373      2.23178715981222      0.12012197709766
  F          -0.67930071657394     -1.81199146937900      2.73249065684780
  H          -2.29167377994857     -1.81669723867199      1.56041114611157
  H          -2.30992900921154     -0.68491969301404      2.94313006396563
  C           2.50319021414094      0.24810104305148     -1.60225057621867
  H           3.56180227626720      0.01013350772441     -1.52327892033596
  H           2.33067351601036      1.24465014346448     -1.19383803162651
  H           2.19912482450497      0.22707877080248     -2.65223396732001
