23
Coordinates from ORCA-job NEB_reactant E -43.862047254870
  C           2.12970102679673     -0.49558967218852     -0.23738335560773
  C           1.39945634778946     -1.58785954284555     -0.53351092566749
  N           2.43993176929817      0.59233643472270     -1.08520874337732
  H           2.56951326246343     -0.41210569091198      0.74480361869521
  C           1.08703784776382     -2.58526861483266      0.56260447780573
  C           3.65398471591633     -2.27493178041661     -2.65884952956183
  C           2.80012140863287     -1.36427841610236     -3.11874825626816
  C           1.31414171078823     -1.49362251542063     -2.94770001036013
  O           0.92332480598144     -2.04597900507391     -1.68677041296226
  O           4.99604014427465     -2.25649221620518     -2.69327120841264
  H           3.30746405984972     -3.17579344285849     -2.16616591921448
  H           3.13419991987995     -0.47131046290365     -3.62046323158318
  H           0.88299238318077     -2.19550162699437     -3.66905002039549
  H           0.84771341277846     -0.51063251754095     -3.08206909081448
  O           3.55135071228848      1.07572396785636     -0.97991477822703
  O           1.57752487304371      1.01503834463436     -1.83545229878978
  F           1.34079706250169     -2.08114283346930      1.80240780675425
  H           1.69906559661810     -3.48711547221178      0.44441240686175
  H           0.02641173564547     -2.85469804923091      0.52060246450202
  C           5.62246030533812     -1.10346215147857     -3.21907142351946
  H           6.69163931779049     -1.26493216667153     -3.09999161167565
  H           5.32220440463808     -0.20875404936808     -2.66633033694052
  H           5.38652317674181     -0.97552852048838     -4.27927962124133
