19
Coordinates from ORCA-job NEB_reactant E -37.203161865180
  C           2.13225491838509      0.32026539124232     -0.08096879343790
  C           1.62037193984925      1.44234065516212     -0.64139290422364
  C           2.38441919366110      0.08629942264939      1.26890397803752
  H           2.37823596961221     -0.50344805675906     -0.73516316751003
  N           1.38064246881737      1.53041688815244     -1.98330241085577
  C           3.72001648068653      3.07177393366017      1.27133826882108
  C           2.60930523590783      2.86238116827101      1.96679082095209
  C           1.25013614564169      2.67899135805348      1.37987600925480
  O           1.22535932506897      2.58616004514540     -0.02645923196430
  N           4.98356767110652      3.25847744917327      1.92089984611273
  H           3.78545209656244      3.10400993655187      0.19455225967070
  H           2.66315359586921      2.83192716739257      3.04731144951777
  H           0.64757395529973      3.56595390285910      1.61170910046397
  H           0.76487185351225      1.81034372526081      1.84118560893868
  N           2.61330060820630     -0.15553259535519      2.37096883496175
  H           1.16506877180530      2.44585533853619     -2.33973181503674
  H           1.85470045038096      0.89510786746344     -2.59975076161111
  O           5.00673899023189      3.34758920852780      3.12690524337469
  O           5.95293032939535      3.32598719401286      1.19502766453374
