15
Coordinates from ORCA-job NEB_reactant E -31.389060833880
  C           0.64227710216906     -0.17740353388335      0.29776877026628
  C           1.49756382134149      0.48180519849029      1.07773855149513
  Cl          1.16940546590141     -1.10839707570095     -1.04667031371902
  H          -0.42164953811182     -0.18876182225184      0.45718142582362
  Cl          3.19455659714582      0.44969431673491      0.81145747662569
  C          -2.16800142995941      0.07973974785849      2.87021156712913
  C          -0.85661356469796      0.28052584030679      2.98575679096304
  C          -0.15002920348457      1.49213195142609      2.46307574744932
  O           1.21008495666557      1.25442000565689      2.14714295646866
  C          -2.81021683993196     -1.05112466088790      3.41316116889090
  H          -2.81392496229009      0.78107827829896      2.35670649987528
  H          -0.23237961977400     -0.43295589077737      3.50630847367111
  H          -0.10274288141242      2.24945233716889      3.25523554348842
  H          -0.67541687176535      1.92030265647094      1.59933140270641
  N          -3.34551303179578     -1.96750734891084      3.84549393886603
