14
Coordinates from ORCA-job NEB E -29.930698369320
  C          -0.90583293834934      0.28163542963728      0.79276301044329
  C           0.17082677205484      1.21566465969967      0.87692841559462
  Br         -0.54809577135195     -1.32444880321022      2.01857797281538
  H          -1.85424654264716      0.66991976603712      1.15451843710654
  Br         -0.05940152907608      2.96973855418564      1.48122691492244
  C          -1.00509968533305     -0.26269062342962     -0.67138980605449
  C           0.32219729963163     -0.60545079788787     -1.14644136634443
  C           1.52478559922624     -0.18183282666483     -0.39287821877305
  O           1.39938561845734      0.94657978313592      0.42650017794673
  Cl         -2.15270917886247     -1.70523835910417     -0.76225700851990
  H          -1.54625837629868      0.49105715039917     -1.24847221479250
  H           0.44279730574206     -1.52530157012898     -1.69425908215293
  H           2.35286185553979      0.05772831323369     -1.06829217214058
  H           1.85878957126683     -1.02736067590280      0.23347493994887
