14
Coordinates from ORCA-job NEB_product E -29.997439252770
  C           1.80755541933345     -1.81142762686525     -1.05983125800883
  C           0.49079587385432     -2.34461568875616     -0.57661851320673
  Br          1.63036726062795      0.13629683305730     -0.85903795168346
  H           2.63481046404035     -2.10801684326071     -0.41271284554393
  Br          0.47709462578508     -2.60168674169974      1.35806027322798
  C           2.07065373849079     -2.15942583392027     -2.51603391063897
  C           3.31840700469577     -1.53673320888180     -3.04132288251105
  C           3.36025196922573     -0.82431999101682     -4.15205212616784
  O          -0.48042579779416     -2.55667072457821     -1.21135430879115
  Cl          2.24051778195368     -3.96120355779713     -2.55939236900494
  H           1.20360004838071     -1.91207935805440     -3.13443806249419
  H           4.20789669112155     -1.71725476017492     -2.45406175046551
  H           2.48022865976853     -0.64363231147655     -4.74671787086440
  H           4.27764626051625     -0.38803018657532     -4.50508642384698
