14
Coordinates from ORCA-job NEB_reactant E -29.984359846780
  C           1.02696947203950     -0.71378904742809     -0.26979010589386
  C           2.18108734351180     -0.85898433272707     -0.91151137776974
  Br         -0.48961416927231     -0.04407665253701     -1.16713429231392
  H           0.88890149876711     -0.94492763783057      0.77017585306198
  Br          3.65336516042544     -1.59506594841703      0.08264654952988
  C           1.59029620985369     -2.97870042540158     -3.17153991817432
  C           2.84613654733240     -2.57653746428675     -3.27816059538784
  C           3.29466888374553     -1.17403210512143     -2.98421846711038
  O           2.39970932541816     -0.45012120981190     -2.15801526409493
  Cl          1.10522607229393     -4.59109193589347     -3.49521014731469
  H           0.77438363440048     -2.33154382182734     -2.88590070759758
  H           3.62643814239680     -3.25617867882698     -3.58441622158493
  H           3.34870457515712     -0.58646767464521     -3.90631397924654
  H           4.29372730393035     -1.19448306524558     -2.52861132610314
