20
Coordinates from ORCA-job NEB E -46.200168098960
  C           0.42499209736991      0.84199487616813     -0.35925729149780
  C          -0.84161731613801      0.67229805985888      0.23957399851770
  C           0.51020436295459      0.83143700244073     -1.87753513333225
  H           1.02858648902588      1.66192070776966      0.02564177298491
  C          -1.07924068531295      1.29699878938664      1.60275384133882
  C           1.30875377338308     -0.72286152927916      0.21064485358791
  C           0.44621772490698     -1.74763129580041     -0.19643325359922
  C          -0.88351174337110     -1.75351339213695      0.32319684190878
  O          -1.56913709656237     -0.36122609598145     -0.08045942056142
  F           2.52591012062357     -0.68555167823153     -0.35698005181033
  H           1.39869240329527     -0.46386349407508      1.26437362396603
  H           0.65011517423051     -2.23197178463369     -1.13905515527257
  H          -0.96757788290356     -1.71665702283523      1.40710760297127
  H          -1.55191906919406     -2.48219097077697     -0.11953415051655
  F           1.78560703947948      0.95127913372028     -2.30133950047187
  F           0.01785709376042     -0.28456320065654     -2.44982007084857
  H          -0.05265077901977      1.68835128632875     -2.28745886165430
  F          -0.32327997076403      0.68165436520324      2.56565469884202
  F          -0.69718904286055      2.59301547271062      1.61479806140405
  H          -2.13081269290330      1.23108077082006      1.91412759404339
