20
Coordinates from ORCA-job NEB_product E -46.231320229790
  C           2.62773371095463     -0.70064492205266      0.73733896864839
  C           1.27885231695766     -0.36569273560341      1.32348568663742
  C           2.52119002413673     -0.72550582858518     -0.79599255926084
  H           3.32060921345706      0.11128411960942      0.99996872781000
  C           1.24374915537760     -0.17133514255065      2.86134949103154
  C           3.25692292260551     -1.99229765100589      1.34407121026560
  C           2.70575557480689     -3.26048290257523      0.76475934152680
  C           1.68112600173855     -3.90924158316782      1.28275840242809
  O           0.27622144106332     -0.21454313447906      0.68715867708879
  F           4.61138774254730     -1.92603876426489      1.11383287227232
  H           3.14466735106744     -1.97385387566460      2.43478996511448
  H           3.21750664945159     -3.60924267586883     -0.12006539742312
  H           1.17047163416693     -3.56500197373070      2.16707140802664
  H           1.30944681591274     -4.81270259446241      0.83404364761266
  F           3.73331079260015     -0.89552092585512     -1.36036457259356
  F           1.74503059538754     -1.73522837864335     -1.23966543096948
  H           2.09340419468622      0.21455289005856     -1.18090445383000
  F           1.04244160686167     -1.35944112643901      3.47562930949667
  F           2.41602611572482      0.31327202325588      3.32491192760158
  H           0.43244614049565      0.51096518202494      3.15592277851605
