20
Coordinates from ORCA-job NEB_reactant E -46.231308281930
  C           1.98960865170173      0.23097080304529     -0.06183048773173
  C           1.77398659035624     -0.69949382660786      0.87392098022239
  C           1.96601488052537     -0.07338388935518     -1.52470663565853
  H           2.17505996286003      1.25944840722941      0.19593000265151
  C           1.80617916254537     -0.28264698451552      2.33348337071969
  C           3.77642313266948     -3.66534098845305      2.54679158887321
  C           3.08693856573529     -3.48131027980600      1.43725948203230
  C           1.65299776917925     -3.05003491578513      1.42046133380682
  O           1.44982762447665     -1.95674459903099      0.52406327897350
  F           5.04838891870076     -4.07449038045130      2.51928978452462
  H           3.41341887972176     -3.52997813373441      3.55527301447720
  H           3.55168069148274     -3.63438383875316      0.47433079392697
  H           1.29529463532849     -2.83080884634808      2.42898464641224
  H           1.03196445204037     -3.84403208166279      0.99315521443001
  F           0.93315002202372      0.56471530455266     -2.13567227124792
  F           3.08987237801847      0.39482656700711     -2.12561653583194
  H           1.87702408042803     -1.14646436415991     -1.74322632372430
  F           0.66880588438906     -0.64887124368221      2.97424205390346
  F           2.82353320147541     -0.86611977387844      3.01532377428886
  H           1.91643051634176      0.80554306438956      2.43644293495163
