19
Coordinates from ORCA-job NEB E -38.954178135560
  C           0.88523570113856     -0.21568835095576      0.75171656081438
  C          -0.37764861552728     -0.83755985120567      0.85852623379032
  C           1.15319228752445      0.95078393617846      1.51138156048763
  H           1.75336898701296     -0.85628495833892      0.62623211370628
  C          -0.46303772110564     -2.30986474021012      0.45096961404609
  C           0.71265415152410      0.67956772904315     -1.02835949363380
  C          -0.45864922233221      1.42610056229693     -0.78986331114169
  C          -1.67706616735690      0.78914943055124     -0.63297960230882
  O          -1.44869396085334     -0.17532751791752      0.92908558178208
  O           1.90764487079327      1.26622318377077     -1.22267066319107
  H           0.64454222655072     -0.22950844815612     -1.61829918587706
  H          -0.33597990775401      2.42587476765520     -0.39216627468578
  H          -1.89449305102155     -0.09056964015140     -1.22129106045200
  H          -2.53733753933832      1.37218850271893     -0.34685920034570
  N           1.40887471604325      1.89039924575279      2.11393138878627
  F          -0.41002832732302     -2.41945178347239     -0.90974723211375
  F           0.58697633381077     -3.01804213745226      0.92082928485549
  H          -1.39543231717832     -2.78090939218209      0.79125257851384
  H           1.94587755539251      2.13291946207481     -0.79168889303269
