19
Coordinates from ORCA-job NEB_product E -38.973151747630
  C           2.59462735448565      0.15898328320951     -1.92971196879624
  C           1.41822089330667     -0.78989338239634     -2.04577906602035
  C           2.68950104101683      0.64716536576879     -0.57210504633152
  H           3.51875843929151     -0.39775347215954     -2.14168010826436
  C           1.45032656448648     -1.93072760653505     -1.00568395945469
  C           2.50460103441165      1.32660881277295     -2.94619122126181
  C           1.53367180480689      2.37726472922536     -2.48077354952320
  C           0.33478771991393      2.54647393407784     -3.00378192609477
  O           0.52546876588863     -0.68406341634549     -2.83191912383260
  O           3.81868550770512      1.82396476434838     -3.07637065997077
  H           2.15876998278958      0.90017058307820     -3.90217533374631
  H           1.89563188744878      2.99748318849075     -1.67141051364401
  H          -0.02692641672123      1.92164435464707     -3.80340918263742
  H          -0.33749046757666      3.30431602447822     -2.64104015950837
  N           2.74849098609062      1.05111071104869      0.49403697221164
  F           0.81560535300176     -3.02089447883218     -1.47210190655753
  F           2.71936850871157     -2.30139487071366     -0.72003748752531
  H           0.96368074263281     -1.61570650303996     -0.06591391576317
  H           3.79652029830939      2.65334797887646     -3.56485184327918
