19
Coordinates from ORCA-job NEB_reactant E -38.987124337450
  C           2.02567749933272      0.09639887078393     -0.50184674120956
  C           1.34823030896988     -0.49728769586343     -1.50181328455279
  C           2.11287817038591      1.46967495180715     -0.23004642003283
  H           2.58151181484481     -0.51985878478843      0.19059564983163
  C           1.39883055372670     -2.01061805505063     -1.63711126079357
  C           2.70880255119967      1.53702615958621     -3.62053429879743
  C           1.70816029622018      2.13145737977376     -2.98404396066475
  C           0.44482227583761      1.43155131268834     -2.57565532366429
  O           0.58759580516167      0.02494561207075     -2.46277601874457
  O           3.86416119621508      2.12303487890162     -3.98972937442519
  H           2.68923127537607      0.49394724350881     -3.90481488848969
  H           1.76311524850961      3.17600228633967     -2.71381581257857
  H          -0.33443326361800      1.55583141349589     -3.33616019700382
  H           0.07684577712116      1.84755556489944     -1.63003494508866
  N           2.23987025696730      2.57405692918981      0.05888662016061
  F           0.15568079454964     -2.53909862554329     -1.59720559458985
  F           1.92767404928354     -2.35615508683597     -2.83355634529889
  H           1.99863077368236     -2.49134493596343     -0.84940070739774
  H           3.86901461623408      3.05018058099979     -3.71703709666003
