24
Coordinates from ORCA-job NEB_reactant E -36.563218707720
  C           1.74951174169807     -0.12882808974900      0.38489903670676
  C           1.90872529414753      1.18765861573946      0.51048511665808
  F           1.29755772959037     -0.89243482488328      1.39895801017836
  H           1.97319413202413     -0.68268925065787     -0.50985013824095
  O           2.43945075205733      1.86958705648617     -0.54802858204719
  C           4.15790977702482      0.16829197597881      3.03330150240844
  C           2.98929486498727      0.76015998171186      3.21903585105249
  C           2.61815785109468      2.06191295201132      2.58230042804682
  O           1.56444082189138      1.89885767738849      1.61544422693798
  C           4.58730272166043     -1.15250840816695      3.58871970956843
  H           4.91260051046921      0.66382279065008      2.43146388614834
  H           2.20256068993822      0.29562987986882      3.79206730865124
  H           3.49481038336478      2.52147920153802      2.10666496727264
  H           2.19352662186086      2.75438461149158      3.31376385908105
  C           2.14467199978058      3.25505776447455     -0.61024466440882
  H           2.47852343411774      3.57823057534345     -1.59394867285108
  H           2.67991368676227      3.81696760417189      0.16023650420253
  H           1.07266009511297      3.43413512956887     -0.50178142389110
  C           3.51224988240738     -1.90023500988425      4.36507049115880
  H           5.45955535809447     -0.98771926314966      4.23048112091436
  H           4.92650543424136     -1.77132304693966      2.75183434008009
  H           3.20794539136074     -1.33569301960431      5.24303889316861
  H           3.89421302577530     -2.86417858366040      4.69364068816701
  H           2.64131780053813     -2.06966631972798      3.73724754103710
