17
Coordinates from ORCA-job NEB E -32.751183122000
  C          -0.77954947475426     -1.19663233076743     -0.41844483574954
  C           0.07387796653549     -1.84045996970034      0.46367796829990
  I          -0.28140995920200     -1.34638993727063     -2.48371342284181
  H          -1.84794763807113     -1.28949303643446     -0.27563818823463
  I          -0.82588795739009     -2.27819942313870      2.40877580556125
  C          -0.35024210845979      0.68492310980765      0.12842418009716
  C           1.03624099954679      0.69154587683935      0.00183152155492
  C           1.81114492929400     -0.14691039824967      0.83409754619458
  O           1.32240527572846     -1.71391847827585      0.43680666233905
  C          -1.19166091944152      1.59630365399175     -0.72986020591951
  H          -0.77498128790028      0.57806214071015      1.12293453577961
  H           1.45734416392477      1.01619926338725     -0.93932597947264
  H           1.56361113406867     -0.17300111625417      1.89203176915696
  H           2.87349106627541     -0.20156465836734      0.63914358431494
  F          -0.54293114857017      1.97181694406172     -1.87223362223431
  H          -1.40845946376169      2.51711873577281     -0.17332699955715
  H          -2.13504557782268      1.13059962388793     -1.03518031928876
