17
Coordinates from ORCA-job NEB_reactant E -32.783897863560
  C           1.08133332889482      0.78833859925036     -0.60129676658450
  C           2.24995522519685      1.28684848635551     -0.22994228676866
  I          -0.68353698514255      1.40888432195718      0.35435577947564
  H           0.96031760568677      0.04798586874105     -1.36727188135409
  I           3.97522073187108      0.60445554628222     -1.30226522553581
  C           2.09081960736673      4.37324467742491     -0.89135314413971
  C           3.21973089334436      4.14541558994761     -0.24211126649898
  C           3.41041369805315      3.08960819722071      0.80466716270192
  O           2.40925346601125      2.08923561075394      0.81476241753083
  C           1.91779890083265      5.42768370830342     -1.93454079500264
  H           1.19211789265793      3.80472503855570     -0.69801681254413
  H           4.09819594619553      4.74118149763592     -0.44413697629560
  H           3.36428076157887      3.53404410015097      1.80444666603615
  H           4.39972059640503      2.62561438118178      0.68421485213307
  F           3.05838143196369      6.16364263154458     -2.11955682596140
  H           1.12564600559185      6.12968213237519     -1.64586773301120
  H           1.66575089349197      4.98000961231892     -2.90458716418090
