17
Coordinates from ORCA-job NEB E -37.701600530670
  C          -0.44432015802090     -1.40058930948381      0.35742515673218
  C          -0.45347203623987     -1.11696837527247      1.73555111031450
  I           0.75588420682904     -3.10628074494145     -0.17335989535538
  H          -1.41207717783439     -1.51438104665674     -0.12024342043605
  Cl         -1.90561640171569     -0.84161277853935      2.60652462129557
  C          -0.21297160776328      1.15078871795064     -0.44045350427094
  C           0.53422649248543     -0.00241074093352     -0.17528802194632
  C           1.40506280111993     -0.00458938751547      1.09068641613310
  O           0.60897867214370     -0.44631579217783      2.18455762926813
  C          -0.70840610439904      1.42003179335695     -1.80997716743913
  H          -0.66733991739545      1.71779465194509      0.35479110785469
  H           1.04589402967676     -0.37281825852185     -1.06008073656783
  H           1.77145665884206      0.99099988016258      1.35096330842813
  H           2.25674231653775     -0.67906667977297      0.95497817619049
  F           0.25044592738565      1.20202037185031     -2.74983426470251
  F          -1.73202974767295      0.56285477223609     -2.15905162757019
  H          -1.09245795397875      2.44054292631378     -1.94718888792843
