21
Coordinates from ORCA-job NEB E -45.322100505250
  C          -0.47595909679467      0.67988811828672      0.85482098983526
  C          -1.53455883678329     -0.19199233450549      1.10736264941224
  C          -0.71860301996997      1.95111699187376      0.10447324392773
  H           0.23742692164261      0.82577206070487      1.65848756728034
  Cl         -1.28101630251588     -1.22111854328165      2.54422782239098
  C           0.58345853685512     -0.68472654221276     -0.40296243924495
  C          -0.42673859681983     -0.94333991436161     -1.33281351677945
  C          -1.56019436558211     -1.65249261509171     -0.95519032861215
  O          -2.37845064898258     -0.57301271182669      0.28373503631799
  O           1.68612049997599     -0.04787649003717     -0.80578337027954
  H           0.70781730039108     -1.36920826533083      0.43659489722436
  H          -0.42860694898086     -0.35572135432910     -2.23713896777209
  H          -1.46407044996442     -2.46652768355305     -0.25005524025092
  H          -2.36531846484574     -1.75675448295142     -1.66502608004871
  Cl         -1.81161241738127      1.82188623291097     -1.27000743343742
  Cl         -1.47389929658047      3.11690188784174      1.27239336717373
  Cl          0.79657911064176      2.69707800259891     -0.43948368755262
  C           2.76125874815431      0.02263028871991      0.10756878534546
  H           2.58298481139021      0.79758455275282      0.85809636401566
  H           3.64096458777224      0.28716950306012     -0.47535699941584
  H           2.92241792837777     -0.93725670126833      0.60605734046996
