21
Coordinates from ORCA-job NEB_reactant E -45.356897360270
  C           1.79971498640104      0.30666223081419      0.13823743683540
  C           1.83713430579401     -1.00957898005590     -0.11349038414763
  C           1.55470917886210      1.29711555345925     -0.93570486516881
  H           1.93451183873679      0.67859263799452      1.13802663211459
  Cl          2.18500254202540     -2.09042507343435      1.19274285397896
  C           4.42697801437091     -3.40863361202981     -1.07324354684319
  C           3.59334065503755     -2.71528927160559     -1.84264584920906
  C           2.10868439992016     -2.78912228384127     -1.69061629301359
  O           1.56895799231289     -1.51598507903239     -1.30190009152748
  O           5.77060549351729     -3.41347397435146     -1.08943262999041
  H           4.06435312434438     -4.10142030640569     -0.32425246997079
  H           3.94081464935250     -2.01275053716393     -2.58344011433456
  H           1.81956638417293     -3.55640985530966     -0.96626534644097
  H           1.61967741131869     -2.98354714130475     -2.64816069341997
  Cl          2.73824978943227      1.11411076044858     -2.26106970776280
  Cl         -0.07523981757716      1.10359392888582     -1.65224789285469
  Cl          1.68989055535017      2.94343867402675     -0.30233118459543
  C           6.42001868465253     -2.55185965792088     -1.99844059033497
  H           7.48670238625083     -2.69250127389549     -1.83557851696187
  H           6.15416639886446     -1.50733864171814     -1.81127718851664
  H           6.16936102686023     -2.80847809755981     -3.03190955783607
