21
Coordinates from ORCA-job NEB_product E -45.355286210370
  C           2.69747733030165     -0.71398695897214     -0.29736395119693
  C           1.53205926164010     -1.45729734574087      0.30826567947412
  C           2.21650610143178      0.42976263247445     -1.19050038160763
  H           3.29112264314449     -0.26184900510548      0.50575008845117
  Cl          2.01670618566642     -2.28385471896267      1.79004722891661
  C           3.66164393487131     -1.74071412002435     -0.97329662060073
  C           3.20889248734589     -2.17837499209853     -2.33925178140374
  C           2.52230281875964     -3.28410431656595     -2.55562584375688
  O           0.42456509706462     -1.55765229893147     -0.08817695751747
  O           4.93383770319993     -1.13341028768974     -0.99009971818047
  H           3.69343062176496     -2.62175685496241     -0.30739925290088
  H           3.51327968225458     -1.53139761196712     -3.14918452871926
  H           2.22324138952772     -3.93498433244552     -1.75002829521966
  H           2.21414064231748     -3.57308799693103     -3.54469466087172
  Cl          1.13149647004193     -0.08465093414944     -2.48811906522810
  Cl          1.31657450178290      1.58037540364516     -0.15466344865670
  Cl          3.58968735757273      1.28841016536530     -1.90047448380290
  C           5.97986305446391     -2.03260480572601     -1.27080282861241
  H           6.02388075852002     -2.82959304936476     -0.51862687137825
  H           6.89581213690652     -1.44744335599826     -1.23775293564890
  H           5.86857982142140     -2.48628521584915     -2.26090137153928
