20
Coordinates from ORCA-job NEB E -50.649205415750
  C           0.63589079862046     -0.28281797602627     -1.19063095858243
  C          -0.05696414488658     -1.46248708407012     -1.45828687281540
  C           1.51152902769895      0.55725168957827     -1.91931567864879
  H           0.30948308389600      0.10039085630266     -0.11041032384432
  F           0.33058858623048     -1.97698567383123     -2.67634652920774
  C          -0.18038659879563      0.39365089638013      1.01497917302073
  C          -1.58275787635541     -0.00104871488040      0.99833707738036
  C          -2.53600747771361      0.82029072493365      0.55661220560777
  O          -0.87163047898395     -2.03776640183403     -0.79420501559397
  C           0.72508366306764     -0.28797538428648      1.99524155522436
  H          -0.02430685346904      1.47723687011017      1.00260344596502
  H          -1.82284925796170     -1.00375839236027      1.32260960274521
  H          -2.31536082259114      1.80790865171860      0.18274989738303
  H          -3.56871909774652      0.52036011099721      0.55889301970004
  Br          1.57126151907767      2.37033581996866     -1.19826034702589
  Br          3.51614360523995     -0.10153742066447     -1.90435135618630
  Br          1.04035386207659      0.70922480906760     -3.84159172862868
  Br          0.10937280609866      0.35454212872476      3.75897807970721
  Br          0.63036646975825     -2.22663043859998      1.95195476351721
  Br          2.57890918673890      0.26981492877154      1.75043999028257
