20
Coordinates from ORCA-job NEB_product E -50.763906361530
  C           1.85431862719143     -0.62718814645523      2.19105122460093
  C           2.90604224661173     -1.71623995444944      2.35177521701607
  C           1.59105413177150     -0.38218963279302      0.70444171428043
  H           2.34561728388028      0.28846477333430      2.55630630349154
  F           2.47514051262486     -2.92398235423344      1.92980394260657
  C           0.56379344546994     -0.82085061661388      3.02532025538629
  C          -0.26841499143921     -2.01438476913892      2.64112595348698
  C          -1.55093819325853     -1.91224731532680      2.34084047277758
  O           4.00801127915365     -1.57514075433624      2.73884948817762
  C           0.85317222812056     -0.87006593024957      4.52990177094632
  H          -0.04453925991170      0.08346562733273      2.87512386878557
  H           0.21959333799722     -2.97771979272723      2.66058494372967
  H          -2.06506911545743     -0.96486771142173      2.32080635387365
  H          -2.13322126066376     -2.78078638426239      2.09159508821789
  Br          0.39744959433038      1.15499380240174      0.47576358356432
  Br          3.30067589594929      0.07776506785248     -0.16377448261338
  Br          0.81866010673958     -1.87114402766663     -0.27634103509113
  Br         -0.84549984375927     -0.81104240664588      5.49884286445577
  Br          1.79407443150345     -2.49446054528022      5.07559257023948
  Br          1.90107954314604      0.68082107067937      5.13088990206783
