20
Coordinates from ORCA-job NEB_reactant E -50.753877849060
  C           1.46732324648101      0.12085800456992      0.21824161294272
  C           0.77544757224571     -0.71487445777821      0.99805126448829
  C           2.46283534650278     -0.33120276268383     -0.77113559059348
  H           1.27852466999805      1.17657847688209      0.31783776495216
  F           0.96377784253556     -2.03928190878970      0.92668811193375
  C           0.05207992918148     -1.52771838948051      5.14852415600791
  C           0.31838728189337     -1.61204750214276      3.85538015017962
  C          -0.67432332041191     -1.25794925268400      2.79051973614225
  O          -0.13965066622897     -0.31228091335650      1.86644879234865
  C           0.97098829822186     -1.88202969112884      6.25265596023814
  H          -0.91777788756578     -1.19029273189376      5.49456705530408
  H           1.28407403393202     -1.94775388606852      3.49956147817528
  H          -1.55249724789407     -0.76504543126669      3.21045468542382
  H          -0.98615119998474     -2.16966802442371      2.26385363272553
  Br          3.26770840076770      1.19116576303480     -1.67040004006600
  Br          3.92535052362188     -1.36892258337454      0.07060417715547
  Br          1.65948344448926     -1.48943814975959     -2.16492848064444
  Br          1.16311984156978     -0.32743871663910      7.45041345206754
  Br          0.17131889538237     -3.35729882025234      7.29897846517637
  Br          2.74658099526263     -2.43485902276422      5.69608361604234
