23
Coordinates from ORCA-job NEB E -39.584026323640
  C           0.99224934526725      0.18079634248824      0.69064681389425
  C          -0.01966640548481     -0.51031412794208     -0.18142394199328
  N           0.32976686249316      0.27728879416296      2.00544920250761
  H           1.88000929519602     -0.43945833540446      0.82333935099430
  C           0.12863508228892     -1.99108657866546     -0.33254573616183
  C           1.27228892797852      1.54178361480187      0.02217130668194
  C           0.11715408228550      1.74431668155731     -0.89971476028101
  C          -1.26066208318793      1.33469339753636     -0.51432630066739
  O          -1.27801368100426     -0.04562471136498     -0.26123468673454
  O           1.55141352474086      2.62530986816262      0.87080894903879
  H           2.18904343990193      1.42063277762767     -0.56709911410654
  H           0.16383001018750      2.66835346304352     -1.46362110686041
  H          -1.97085797770474      1.50096375674988     -1.32963246356556
  H          -1.62477568586419      1.88893834517270      0.36717656965925
  O           0.44757387163405     -0.67408833504834      2.74743015189358
  O          -0.37234385715393      1.25413237362970      2.21171912841221
  C          -0.93690554920957     -2.60980065863594     -1.22894622442281
  H           0.07811137348569     -2.44697824722304      0.66678026089507
  H           1.12700587092988     -2.20026161524851     -0.72624361328232
  H          -1.92707290574387     -2.41278881238346     -0.82899092494954
  H          -0.79186421081251     -3.68462004927171     -1.29116908792121
  H          -0.87967803417181     -2.19024528732140     -2.22995390593329
  H           0.78475870394831      2.76805734357659      1.44938013290275
