23
Coordinates from ORCA-job NEB_product E -39.641684344420
  C           2.72468668879812      0.81639755790049     -1.36733915203276
  C           1.38431636211982      0.05888244574342     -1.42261480888749
  N           2.97493498125079      1.15094024146529      0.05517716125019
  H           3.54649295872424      0.15923923495355     -1.66539534602115
  C           1.46758967295870     -1.32580458711248     -2.00346965872719
  C           2.70787291128484      2.08314615348523     -2.28121961575072
  C           1.47278702060576      2.91650911484724     -2.07681325076230
  C           0.52825732665371      3.04907686563243     -2.98757113879264
  O           0.37324870310612      0.56636176539172     -1.02603996722534
  O           3.88870946713137      2.81695573894545     -2.10589562843239
  H           2.73846867376808      1.72233482818442     -3.31647671103629
  H           1.41126410081827      3.43033377094996     -1.12847278334242
  H           0.57693211052540      2.54417166236259     -3.93889759267171
  H          -0.33745698551874      3.66355945553431     -2.81572266163645
  O           3.23307799776257      0.21293503010191      0.76850848588959
  O           2.91344426681244      2.30218368547732      0.40619170300340
  C           1.86410280259133     -1.29827326151483     -3.48047592357377
  H           0.49046018998303     -1.79774160934052     -1.89263799153968
  H           2.20244242898780     -1.89657116455181     -1.43111569004950
  H           1.14912565199187     -0.71087052779486     -4.05108621396249
  H           1.86697673681080     -2.31130043875000     -3.87334419392545
  H           2.85532323920129     -0.87558976472363     -3.62319736929040
  H           3.82574269363239      3.29672380281281     -1.26629165248303
