23
Coordinates from ORCA-job NEB_reactant E -39.649846140230
  C           2.23783058331545      0.27766286069003     -0.62767463968099
  C           1.36480294574018      0.06744425393270     -1.63898379244224
  N           2.39624237480775      1.41537236200665      0.18524802890132
  H           2.95324111600661     -0.49649672030554     -0.39677762150292
  C           1.31412309067096     -1.30224832270118     -2.27106877774948
  C           2.87234842490890      2.46353522096945     -3.11509049425562
  C           1.96306348211931      2.92074257700804     -2.26369271619885
  C           0.59863457682702      2.31855343064973     -2.09244141910438
  O           0.55642605304537      0.90545625804711     -2.27332239135920
  O           4.11559889004163      2.95165323502377     -3.28608117601730
  H           2.69006867985092      1.62158304678491     -3.76799091741221
  H           2.18352559914229      3.76527740321715     -1.62605861223031
  H          -0.09686650991154      2.69242473128916     -2.85211317222469
  H           0.21512289123294      2.58081790901776     -1.09939616107943
  O           3.52445611579717      1.66949159222703      0.57052652328317
  O           1.40702376578201      2.05331013787914      0.51434750780710
  C           2.22619089545146     -1.37432659269165     -3.49699533656914
  H           0.28546557468270     -1.49163216338071     -2.57956396638926
  H           1.61070878348393     -2.05576841583904     -1.54312164620271
  H           1.89555843237234     -0.67031204188111     -4.25610977687031
  H           2.19743181713954     -2.37432902249349     -3.92108315170715
  H           3.25265306252026     -1.14212636427998     -3.22385595745638
  H           4.27824935497278      3.67681462483008     -2.66820033353903
