17
Coordinates from ORCA-job NEB E -39.975219739290
  C          -0.05126482547433     -1.35407856379851      0.66815017687647
  C          -1.38795134660733     -1.34460092792476      0.25227850653937
  Cl          0.24465021795749     -0.92974754945820      2.33766441496969
  H           0.57994917667847     -2.17589368846025      0.34732344332377
  I          -1.76641113136593     -2.48396371959271     -1.55285600612950
  C           0.55021987031762      0.21109468842419     -0.34466163893888
  C          -0.35853799747880      1.19345116725312      0.06604810206612
  C          -1.72534652429174      1.02259425533614     -0.25409171904919
  O          -2.17148663183918     -0.39318009318590      0.50718439532515
  C           2.01730090916569      0.44069412189088     -0.13393039181131
  H           0.38419932097853     -0.23625050679858     -1.32526694091512
  H          -0.10365600628605      1.82140152393027      0.90773591073665
  H          -1.96630788499250      0.73922965685445     -1.27597122461951
  H          -2.42169804304267      1.73510186129917      0.16729159874438
  Br          2.60741488487651      1.64042501706042     -1.59972462840981
  Br          2.49859746051480      1.30659816697331      1.53022322341064
  Br          3.07032855088942     -1.19287540980304     -0.29739722211892
