17
Coordinates from ORCA-job NEB_reactant E -40.004480649350
  C           2.23500393137522      0.46520832863731      0.07336666604012
  C           1.46235690463313      0.88893247997881     -0.91779587953456
  Cl          3.07165243255784      1.45456644555292      1.22237863707207
  H           2.38396838760744     -0.58752723580422      0.24010734151989
  I           0.53001341062497     -0.57698095802995     -2.12459401598346
  C           4.19516987536168      3.81276263661942     -0.72993258790642
  C           3.21758005278891      3.24485113806076     -1.41676397489254
  C           1.78548811881775      3.26428622007592     -0.98337395571361
  O           1.09500152249065      2.09016352626709     -1.37782916602003
  C           5.62696580393157      3.82013304815832     -1.09388462218873
  H           3.99070588156543      4.32426376970883      0.20323572354291
  H           3.40281658455590      2.72590465015328     -2.34842723012107
  H           1.25589089175916      4.06473685593695     -1.51344095715577
  H           1.69491669043612      3.43331007991751      0.09406923483677
  Br          6.26067442866397      5.68567210472535     -1.22806924611349
  Br          6.65293308591784      2.93461428105961      0.34230370422979
  Br          6.04936199691241      2.92620262898211     -2.76164967161189
