22
Coordinates from ORCA-job P E -24.255220509850
  C          -1.26681387957856      0.24951252192917     -2.47504184268158
  C          -0.04973118194163     -1.68192214885308     -0.90852081016945
  C          -1.44214716059689     -1.93082778023279     -1.39355006943757
  C          -2.03411476666739     -0.98566566603499     -2.10577165537441
  C          -0.48930907066863      0.80156474728403     -1.25918997598012
  C          -0.01714459334874     -0.28398866866107     -0.28001524954892
  H          -1.94134786099791     -2.84638438274451     -1.11561637800396
  H          -3.04929809049468     -1.08017937807471     -2.46093390536185
  C          -2.17974213092770      1.31022906391836     -3.09604849211566
  H           0.25857883203745     -2.43095343209144     -0.17865768062677
  H          -0.52539903479715     -0.04551007451339     -3.23114732360314
  H           0.65143154170133     -1.71574228186295     -1.74815652760903
  H          -1.13229639048311      1.50435665747731     -0.72621291722281
  H          -0.67261093916074     -0.29876344236001      0.59318010617358
  H           0.37133787754072      1.36127042221845     -1.62790199519510
  H           0.99161917160679     -0.05818823350303      0.06954364620033
  C          -1.41843017483435      2.50907472034658     -3.64981439983173
  H          -2.89740244614542      1.64960194878365     -2.34491018586971
  H          -2.74510757690236      0.84747798275235     -3.90911866588478
  H          -0.90846091003066      3.04945949431898     -2.85656355834038
  H          -2.10345849320040      3.19603526546463     -4.14201764212393
  H          -0.67730272210995      2.18567266443847     -4.37811447739300
