22
Coordinates from ORCA-job R E -24.159070224520
  C          -1.50870412492683     -0.04096981616107     -3.03214674489949
  C          -0.49204408181134     -2.35077526874887     -1.34986980775375
  C          -1.75555149147891     -1.95875989800192     -1.47252232944804
  C          -2.24760666210763     -0.94287861713620     -2.38753478472450
  C          -0.02380978369851      1.33797898317692     -0.18463523523457
  C           0.90000067986532      0.48760283658236      0.20978143169692
  H          -2.51436593579457     -2.42999235772051     -0.86030805075654
  H          -3.32238870057209     -0.93673981861488     -2.52999325967159
  C          -2.05982534389752      0.99899400423538     -3.95154297432904
  H          -0.20167184575474     -3.11309605869584     -0.64679027364425
  H          -0.43821101812725      0.00149510163298     -2.87520765860380
  H           0.29681390314110     -1.93623251271371     -1.95293705385516
  H          -1.06917939011054      1.07997157265790     -0.17678391575628
  H           0.64115257245683     -0.50019479306861      0.55598125264386
  H           0.22136225214011      2.32494747411324     -0.54165153337162
  H           1.94957386006199      0.73337654148031      0.19900406818570
  C          -1.77528231192580      2.40795177242942     -3.42965838043271
  H          -3.13636836565018      0.86026207388331     -4.07289765987996
  H          -1.59074315831595      0.88932211753234     -4.93446111210116
  H          -2.25824408466181      2.56058365685957     -2.46805195684256
  H          -2.14820944713726      3.15435790534312     -4.12745117935826
  H          -0.70499752169441      2.55624510093476     -3.30437284186319
