24
Coordinates from ORCA-job NEB_product E -55.172423470850
  C           2.70501001691735     -0.60959776732184     -1.57494402469878
  C           1.45472827537577     -1.46284258290948     -1.61844745722768
  C           2.48305890577407      0.76129375464922     -0.94806504976518
  H           3.48787136915494     -1.10082251800845     -0.98891762359618
  C           1.58585711376060     -2.89507985945429     -1.12249702129718
  C           3.18383389875066     -0.57823029659452     -3.06003062569562
  C           2.38003200860492      0.34321497806106     -3.93017998298099
  C           2.90338549201075      1.37665235203148     -4.56271070612927
  O           0.39301038071104     -1.09138604725469     -2.02191725343640
  O           3.04781280129339     -1.92821666726423     -3.47855194460066
  H           4.24502634761093     -0.28503737698996     -3.08426603299253
  H           1.34151341847200      0.06928756551716     -4.05134357924763
  H           2.30881376029765      2.00548306305823     -5.20174848953345
  H           3.94168292336584      1.64477038662032     -4.45301188004897
  Cl          1.11503249362590      1.66174888427805     -1.60486675089534
  Cl          2.21300704740790      0.54616448382101      0.80767938349488
  Cl          3.95709749635600      1.73817158621410     -1.15606965679742
  Br          1.09130189572081     -2.75553717924700      0.77141037196896
  Br          0.30029296194581     -3.99295410072314     -2.03987882048285
  Br          3.30897391200088     -3.72228965926301     -1.23052947879347
  C           3.67098149685201     -2.21702338120295     -4.71054596312136
  H           4.74349917558304     -2.00276175294783     -4.65845831838627
  H           3.22559174894507     -1.64073014061944     -5.52640767667383
  H           3.51818505946267     -3.28017772444978     -4.88130141906277
