16
Coordinates from ORCA-job NEB_product E -31.572263920580
  C           2.67271736276176     -1.84797232656454      0.03138406950529
  C           1.89895553418417     -1.49327767805843      1.29838636714573
  F           3.89315816595552     -2.36028722024506      0.37817970094214
  H           2.85470425831310     -0.95988274246701     -0.58755605478224
  C           0.87594241925067     -0.48847718105868      1.04527802601762
  C           1.88562680912514     -2.89041498461621     -0.80174981448691
  C           0.40547721497769     -2.80460061005302     -0.51800171364933
  C          -0.23148166063018     -3.60906732205350      0.31284998149895
  O           2.10051575713772     -1.96821991200213      2.37963295588287
  O           2.17695045443300     -2.62259763034733     -2.15236834085949
  H           2.26756218226646     -3.87895121515440     -0.50203684994090
  H          -0.11344494681397     -2.03180888856360     -1.06900972956032
  H           0.28132981204851     -4.38506083477273      0.85780505711141
  H          -1.28795650523509     -3.51382833782283      0.49227859816881
  N           0.09069354467729      0.32119754368597      0.85355825603061
  H           1.74204959754821     -3.27685065990648     -2.70993050902424
