22
Coordinates from ORCA-job P E -43.497120177740
  C          -1.36289877095723      0.42993439667724     -2.36084776976502
  C           0.03122033661798     -1.58642748114286     -1.13370414453042
  C          -1.27675189031891     -1.91703333923462     -1.77700209868050
  C          -1.95605037019259     -0.95082370150993     -2.37342611967879
  C          -0.95554994037949      0.78058339624091     -0.91445099667358
  C          -0.11986316940910     -0.32888774727125     -0.24609463609169
  H          -1.63731091087679     -2.93118774817466     -1.73518517907183
  H          -2.90839817018345     -1.10624238003668     -2.84970911747720
  C          -2.31763249564569      1.46434078072006     -2.94250776188530
  H           0.39726176941594     -2.41290824792217     -0.52621713223782
  H          -0.47252527747817      0.43835459827000     -3.00455942604408
  H           0.77456053729816     -1.39654850216500     -1.91666860773612
  H          -1.87004674188896      0.92499390872660     -0.33902922266965
  H          -0.60541574882827     -0.63814745345701      0.68216231798659
  H          -0.41957988933549      1.73203961404057     -0.90440831522105
  C           1.28183565901264      0.13797271731456      0.13570438912677
  Cl         -3.83898141940119      1.53424657161285     -2.03037698152995
  Cl         -1.57846434674255      3.08733048127070     -2.93171350926058
  Cl         -2.69823497478818      1.05772114249814     -4.63682347226317
  O           1.77130763529613     -0.06256125852656      1.20728321745734
  O           1.96545039989514      0.76515206168101     -0.83396552925819
  H           1.44717777889005      0.87042819038809     -1.64333990449575
