22
Coordinates from ORCA-job R E -43.409353308120
  C          -1.24066002891656     -0.12800470876959     -2.94215824717816
  C           0.39842048976249     -2.54923571535096     -2.22531530314597
  C          -0.89942455235471     -2.37794141489026     -1.99117494546538
  C          -1.62829905545100     -1.13736372606985     -2.15879796451881
  C          -0.92962134865023      2.05741754624613      0.47330954728684
  C          -0.63589427394808      0.76788297581667      0.55613007670052
  H          -1.48418439710465     -3.19907073353186     -1.59909207557181
  H          -2.55335718135277     -1.05589553044475     -1.60442136367229
  C          -1.97701034994972      1.13843514326968     -3.13109713612918
  H           0.87423647695184     -3.49741549481625     -2.05217095504164
  H          -0.34328159513915     -0.20189491649404     -3.53805538039427
  H           1.03572089651673     -1.74769931760877     -2.55557876464228
  H          -1.79678805116954      2.46441209274140      0.96492756808961
  H          -1.24765906372315      0.09540927465544      1.14019961632445
  H          -0.32145160088167      2.77412017890464     -0.05840419977477
  C           0.55887607442297      0.10985337055369     -0.03430173674954
  Cl         -3.28869555223098      1.39875608315658     -1.97412820364461
  Cl         -0.84613328891720      2.53025188994490     -2.99211138393262
  Cl         -2.67617435854616      1.20459044642416     -4.79125173344481
  O           0.98186354803112     -0.93636275462666      0.38127617824101
  O           1.15475744024565      0.73081292393051     -1.06281931257481
  H           0.68566977240478      1.53470238695918     -1.33571428076147
