22
Coordinates from ORCA-job TS E -43.394914599050
  C          -0.71989868544380      0.31818711101060     -1.11742237668169
  C           0.81730327634255     -1.83845354125671      0.00556249215045
  C          -0.50632808238635     -1.94504569398908     -0.26123828730300
  C          -1.26197128514402     -0.90324516576107     -0.84366836394558
  C          -0.19305384947114      0.89895777481381      1.03603250595477
  C           0.61130960361602     -0.06181257696867      1.56442167655778
  H          -1.05881385247942     -2.78550005248176      0.13372183123132
  H          -2.33528312042121     -1.02037624579263     -0.88294200688514
  C          -1.54027967592615      1.42982032152756     -1.66888077501599
  H           1.32745740448749     -2.59888699362524      0.57202753548238
  H           0.33302786710014      0.41162659014022     -1.33228745660541
  H           1.45578982068848     -1.16580923278239     -0.53884183651768
  H          -1.23606467314009      0.92021170710441      1.29891214346331
  H           0.19817959308674     -0.80686263406050      2.22619763108578
  H           0.19160671451098      1.82258320037020      0.63365463944716
  C           2.09249063549054      0.00033000319810      1.59842785006409
  Cl         -3.07092366787916      1.64089404524734     -0.79507598321959
  Cl         -0.65055154743852      2.97212511137706     -1.62633889698268
  Cl         -1.93239920245524      1.09054569342456     -3.39623450169803
  O           2.75236601339076     -0.70067184251336      2.31617094036045
  O           2.68411800915285      0.88879186936856      0.77665550307612
  H           2.04191870431853      1.43259055164901      0.30114573598117
