95
Coordinates from ORCA-job A2R E -121.909497410070
  Ru         -0.41016828405088      2.07923675478743     -0.24114533720965
  H          -0.81220967724878      0.65532970316829     -0.72823502028138
  N           0.97572388006284      1.14319068733158      0.99846336060267
  C           2.23835399987903      0.93846496227068      0.58069146309820
  C           0.69174145775726      0.89949224895871      2.28933545019015
  C           3.26575015273871      0.63128007599216      1.45878209142244
  C           1.67897181508244      0.60095727149843      3.21842672937307
  C           2.99627327700345      0.49852138682803      2.81063564419299
  H           4.26658760840265      0.49322260222474      1.07822337953515
  H           1.40562710447265      0.43784955031034      4.24889680300906
  H           3.78343430244139      0.28455759843527      3.51661310184689
  P           1.36766196442507      2.20805243768766     -1.67879564209209
  C           1.29640347856148      1.58125201567450     -3.47570743054304
  C           2.45865850674990      3.77725440404315     -1.63334948181688
  P          -1.76794301516777      1.97588772690416      1.59226666131451
  N          -2.10603871259783      3.33674166060922      2.57296389126664
  N          -3.29106229893156      1.25352347873223      1.62227638058363
  C           2.49081291337755      0.96847052888784     -0.89410428521133
  H           2.17581528196884     -0.00348672600261     -1.29304194604177
  H           3.54830292910928      1.11465925946718     -1.12624873325409
  C          -0.74542763002761      0.86246491394743      2.69171483582237
  H          -1.11487059271750     -0.14322593120351      2.44732857021834
  H          -0.84848862891217      1.00034475855579      3.76824673003804
  C          -1.57285105791667      2.90465413466296     -1.39834791441242
  O          -2.27302788196427      3.39701484378060     -2.18196506434825
  H           0.04839466602899      3.41913959660622      0.37705118264704
  C           2.59866364777418      0.99894122467945     -4.02748133072326
  C           0.24185692562199      0.47304293831201     -3.49362801895558
  C           0.78304138775151      2.71307657829925     -4.36681332751450
  H           2.92532411825552      0.13889710227942     -3.44646863863219
  H           2.42187386124774      0.66102047706972     -5.04898957567098
  H           3.40317631136386      1.72431308132351     -4.05632223330500
  H          -0.72856633959868      0.87079724672089     -3.20181481994489
  H           0.16079385094902      0.05401529407629     -4.49670196296829
  H           0.50008787041109     -0.32906638232415     -2.80592799437556
  H          -0.06634501877393      3.20242891666491     -3.88861544025021
  H           1.55176390431996      3.45346588976883     -4.57183678043420
  H           0.44809663755887      2.30982126845913     -5.32245720012454
  C           2.96272191112604      3.91570010338256     -0.19268932880408
  C           3.67884999667317      3.78891283440191     -2.55234980467645
  C           1.55782052369785      4.97238649280453     -1.94956380249454
  H           3.74296602802737      3.19183646276287      0.03506491017847
  H           3.37684844153076      4.91218772238290     -0.04188212803313
  H           2.14442359276080      3.78623767192165      0.51360556665084
  H           3.40129588138157      3.83774484716626     -3.60112269733551
  H           4.27105334159936      4.67736245140354     -2.33031828410447
  H           4.31481383090444      2.92092730436938     -2.38838706544342
  H           1.29611011232218      5.01328177229897     -3.00285618829889
  H           0.63777195463819      4.90376758365631     -1.36938738095396
  H           2.06176600747721      5.90305321152431     -1.69021598334736
  C          -3.81690082864759      0.59281482052521      0.44555687581411
  C          -5.24418715972159      1.00034031846690      0.08781627481362
  C          -3.90065721807867      0.90730732117207      2.89604292689801
  C          -4.95492619520321      1.90444245535701      3.37422439084680
  H          -3.15002481366545      0.85420843869664     -0.38336439174181
  H          -3.79222684710288     -0.49979289470941      0.57745926349954
  H          -5.32297273590156      2.07999047654254      0.00331289899900
  H          -5.51227542625052      0.55827658729654     -0.86901548573629
  H          -5.95233476401990      0.64899361241220      0.83443945540808
  H          -4.35150471839151     -0.08875952136708      2.80952829856610
  H          -3.12253634749020      0.85466138582168      3.66243260871826
  H          -5.75110767870116      2.01801622196795      2.64546232475207
  H          -5.38706861575947      1.55559115349634      4.31035401280779
  H          -4.49128448808144      2.87157127822446      3.54075644029696
  C          -2.40585919608322      4.53522132012822      1.78783319528901
  C          -3.63768927902907      4.35434575528754      0.91640267019896
  C          -1.37286325565560      3.64589509195820      3.78904009991638
  C           0.06196291967037      4.12943489553791      3.58298829522492
  H          -2.57630968016824      5.35952917417533      2.48841211222535
  H          -1.55953094220578      4.80210008391584      1.13917687141546
  H          -4.50719049690439      4.11201214676440      1.52111674298161
  H          -3.83173421619267      5.27206576198518      0.36507916663913
  H          -3.46181623456318      3.55043341916410      0.20340411741986
  H          -1.93940643677595      4.42332915664845      4.31719116356755
  H          -1.37289243834249      2.76769161661258      4.43722787563947
  H           0.07531989726509      5.06471209905143      3.02929962624993
  H           0.54665736795805      4.28614629950076      4.54454778732226
  H           0.62882254208015      3.39066375592091      3.01981155277999
  C           0.18183452379823     -2.30275307935387      1.09284138781313
  O           0.42004983421658     -2.14398156845784      2.27299668223817
  C           1.28043760676074     -2.42823256917026      0.10062580409740
  C           1.06212878714176     -2.52698889822996     -1.27254323466685
  C           2.13521805400980     -2.62764054739980     -2.14084190272968
  C           3.43324119435537     -2.63061019123237     -1.65442388054567
  C           3.65974574323940     -2.53539512573470     -0.29024273125309
  C           2.59149068045561     -2.43648497244120      0.57888377620599
  C          -1.22691474687935     -2.34914145005740      0.57119785228759
  H           0.06011657947770     -2.52020778258937     -1.67114199249227
  H           1.95900757372101     -2.70349446527930     -3.20409072832221
  H           4.26563947027697     -2.70950867991327     -2.33856969931843
  H           4.66966191954789     -2.54382231133832      0.09282436147753
  H           2.74609976711198     -2.36486570682851      1.64534393674608
  H          -1.92433276457062     -2.39222467846026      1.40509225768027
  H          -1.38387373317934     -3.20582555449425     -0.07881755403279
  H          -1.40784754106827     -1.43456668713615      0.00181258361407
