95
Coordinates from ORCA-job A2S E -121.910178525220
  Ru         -0.07013787657631      1.94419917059813     -0.13610209894261
  H          -0.14874661494372      0.41348293840409     -0.41536547487341
  N           1.12737798546517      1.45871444429369      1.48400379329344
  C           2.46537792543136      1.37792620684989      1.35060493939516
  C           0.61404304809785      1.38110041956174      2.72392718920984
  C           3.31544587679222      1.36633058302551      2.44718538001992
  C           1.41335861758391      1.39330214113936      3.85825704166581
  C           2.79083950777237      1.42260541081728      3.72691759469959
  H           4.38249490428642      1.31697404009488      2.29148195320360
  H           0.95147940257404      1.37347319178787      4.83362197622949
  H           3.43370591144271      1.45376559192017      4.59286083465216
  P           1.95145879605453      2.16077635854560     -1.21052333555251
  C           2.34987089980176      1.31525596283676     -2.86606190291083
  C           2.79089344778315      3.87996280492390     -1.19507256227975
  P          -1.76685464411608      1.88518260456831      1.37981057939263
  N          -2.53365152462466      3.29163969871076      1.98061318562084
  N          -3.12598454951847      0.88933791268036      1.27414030588357
  C           3.01671472482100      1.22723670878081     -0.02975988894282
  H           2.90653130975768      0.16879936584098     -0.30284771635386
  H           4.07505735446728      1.49401898804129     -0.08091879882457
  C          -0.85985866443935      1.18092985497517      2.85883390752782
  H          -1.04314145670037      0.10110498090190      2.75834582298389
  H          -1.20413587169772      1.48946322526246      3.84656372738347
  C          -1.05662737481691      2.36659508560565     -1.62689140252661
  O          -1.63544368812631      2.60055942972526     -2.60505901355133
  H           0.05137945895811      3.42291723716566      0.29713298905708
  C           3.80465667826124      0.88128431371819     -3.04843309247066
  C           1.48351213838809      0.05613807462497     -2.91404400655610
  C           1.89912152808967      2.23097182796077     -4.00507427572048
  H           4.08634611793056      0.14205883020548     -2.30250068055212
  H           3.90603714859423      0.41547096850471     -4.02895952643228
  H           4.50299358337628      1.70857013968262     -3.00404973302216
  H           0.42914360778767      0.31639335577018     -2.83683752551050
  H           1.64663253468438     -0.46839532980692     -3.85551186527152
  H           1.73584807311506     -0.61757356490654     -2.10008814005824
  H           0.90912135259814      2.63317792311624     -3.78609450782053
  H           2.59056984543779      3.05383856146338     -4.16710568429051
  H           1.83663755895352      1.66354655204022     -4.93363034003460
  C           2.94281554234663      4.28316204545069      0.27562660220840
  C           4.17252413127738      3.96816155670381     -1.84089827631610
  C           1.83847904911914      4.86695969625293     -1.87240777463169
  H           3.73865390494679      3.72715683365767      0.76767953211857
  H           3.18539239557533      5.34346744524839      0.34327165619976
  H           2.01187656824234      4.12137825433711      0.81649665704360
  H           4.13019935468266      3.83302462997935     -2.91746381675411
  H           4.58073670680438      4.96183951608512     -1.65247338920333
  H           4.86315870747450      3.24319304889701     -1.41438136141937
  H           1.81602174498284      4.73159773156175     -2.94961913434503
  H           0.82836616627370      4.72793284553206     -1.48797088353280
  H           2.14877441554051      5.89130882596082     -1.66715130485277
  C          -3.24525207694610     -0.07442379115081      0.20104069829605
  C          -4.59211217447016     -0.04208237336278     -0.51695506147455
  C          -3.94620239833487      0.66130219854205      2.45213054298141
  C          -5.23519665586144      1.48125012215016      2.48279091942793
  H          -2.44855805434837      0.15703900076519     -0.51391330094820
  H          -3.07906370288062     -1.09338209514227      0.58475591823964
  H          -4.81757198171631      0.96481520482141     -0.85524308846103
  H          -4.55246712988832     -0.69713331214214     -1.38442084577484
  H          -5.39317476267443     -0.38700067852403      0.13264681149992
  H          -4.19084285651149     -0.40672730842299      2.50815487522350
  H          -3.36917335557154      0.91798244032669      3.34510347442205
  H          -5.84293404258802      1.29408909951035      1.60347637205896
  H          -5.81212839526231      1.21989017728891      3.36803929451284
  H          -4.99176500496391      2.53815732707066      2.52205825564947
  C          -2.82370189034850      4.26000218913234      0.92131722925011
  C          -3.79625465388005      3.70488026392520     -0.10639179971660
  C          -2.15231799928411      3.93382232161831      3.22716069956483
  C          -0.79112901438155      4.62756600287782      3.21590985663813
  H          -3.25968551424420      5.14859355597280      1.38962229001649
  H          -1.90344132183142      4.55968429879508      0.40005612937553
  H          -4.73689872372789      3.42576300841211      0.36033095536142
  H          -3.98647360543553      4.45546905958105     -0.87058817104778
  H          -3.35876525775882      2.82790481885590     -0.58080101632207
  H          -2.92916200737704      4.67337945133486      3.45859466772082
  H          -2.17961030389460      3.19397713992112      4.02991281473852
  H          -0.77894722639188      5.43317803898731      2.48641274949118
  H          -0.57256038873902      5.04218695675789      4.19803452624954
  H          -0.01076650468741      3.91637648024371      2.95195384929860
  C           1.27656736878414     -2.27476181964855      0.13456706848850
  O           2.39579511661988     -1.90573452362324     -0.15951976550106
  C           0.79307795291887     -2.20377411304388      1.53648923818893
  C          -0.53286126353860     -2.43884484678221      1.89480495746761
  C          -0.91515390395946     -2.37444938147333      3.22253934411947
  C           0.01675460645241     -2.08395640835656      4.20754387575735
  C           1.33596052899477     -1.84312070744407      3.86023333933064
  C           1.71862468271392     -1.89910168706120      2.53446641332873
  C           0.33011476676995     -2.82727587435568     -0.89458678240272
  H          -1.27195357484728     -2.65849362798299      1.14083945867734
  H          -1.94581946025664     -2.55470754369579      3.49383461995925
  H          -0.28747636479888     -2.04394472768506      5.24336383401528
  H           2.06523649033654     -1.61555257627446      4.62348132106568
  H           2.74383556883042     -1.71642775882179      2.24697372523914
  H           0.86386321768268     -3.00128285628578     -1.82559440748010
  H          -0.44965227120388     -2.08748712737697     -1.07414038450264
  H          -0.12752221751141     -3.75186245733176     -0.55256365625875
