95
Coordinates from ORCA-job A3R E -121.872794093940
  Ru          1.63821750053002      3.64351854057511     -0.07977810876524
  H           0.23764455601614      2.28822011325525     -0.26425072257398
  N           2.05759861019719      2.35849794342043      1.54028663498859
  C           2.73002006776654      1.18300496114092      1.26424577676966
  C           1.64256730627885      2.58956562406335      2.79209902899497
  C           2.96559566576712      0.25083752374533      2.32099406688062
  C           1.89122983424540      1.72934436004269      3.84248026480908
  C           2.57325318573520      0.52985622223269      3.59179505592452
  H           3.48232863399832     -0.66531002962967      2.07852700980288
  H           1.54375118689049      1.97192499172721      4.83407365084248
  H           2.76922742512217     -0.15885018217297      4.40058454252128
  P           3.16418690216616      2.23889187858143     -1.16893434821275
  C           2.84906649083561      1.52964260100812     -2.90386294733455
  C           4.98402343461617      2.85694333692865     -1.10213662876726
  P           0.69148690735055      4.93980557935069      1.59804215155544
  N           1.50594453607661      6.35822304899916      2.08707349705776
  N          -0.89640832026558      5.52156015250567      1.68100414997450
  C           3.11658860021464      0.88725361996893     -0.03799077154492
  H           1.04282701602293      0.20025565994286      0.00878588767089
  H           3.69622423332948     -0.00805801247452     -0.21970541949191
  C           0.79190067555885      3.80125336169433      3.07061976293904
  H          -0.23866514093194      3.45774633181889      3.23588287472832
  H           1.12356448368323      4.27534783317128      3.99441247599656
  C           1.26082825918975      4.67255352809942     -1.55210074852000
  O           1.06186708994590      5.31505572149811     -2.49518225015935
  H           2.82853796773448      4.50805194049037      0.20895199959398
  C           3.41799947379517      0.12439295112387     -3.08418997919519
  C           1.32935275218304      1.44937255446186     -3.06240250389898
  C           3.36532192195842      2.48103930031992     -3.98196385101338
  H           2.95371791877801     -0.56471267510637     -2.38236984007820
  H           3.19529113339589     -0.22425320881295     -4.09267502928912
  H           4.49374050232379      0.09191945656374     -2.94704082862338
  H           0.88268783710427      2.43769643159134     -2.95132280161233
  H           1.07746205977890      1.08002666352870     -4.05636959869724
  H           0.89043639816124      0.76712327165011     -2.33940478283822
  H           3.04485178668152      3.49978708745518     -3.76636126284106
  H           4.44762517415430      2.45791820124429     -4.06723904080061
  H           2.95263502807218      2.19346374963890     -4.94924067142615
  C           5.30668791212256      3.00554553296280      0.38773241250516
  C           5.99258905712186      1.87038642712518     -1.68771907575328
  C           5.11421595614446      4.22800109487034     -1.76612284985894
  H           5.32571944874553      2.03691754984493      0.88342738307955
  H           6.28240760323991      3.47293896284326      0.51469647877705
  H           4.56155275484533      3.63088715956696      0.87873434889823
  H           5.91964250678603      1.79458659186977     -2.76870960293688
  H           7.00154020794005      2.20792886109361     -1.44878033023609
  H           5.85990461225676      0.88217667879698     -1.25085707749216
  H           5.13412707812076      4.15662639383100     -2.84845981017018
  H           4.27577335041245      4.86273535248639     -1.47525905722332
  H           6.03844975295719      4.70829458476853     -1.44570006460154
  C          -1.88158220300903      5.08396750964853      0.71812712705953
  C          -2.67042026739500      6.21293275359971      0.06042994109390
  C          -1.39237605943256      6.08289192420556      2.92645232017652
  C          -1.43540807583244      7.60924654152852      2.94902839585029
  H          -1.33272322714660      4.53780491840316     -0.05647906325679
  H          -2.60118053324489      4.38908135792042      1.18090732784821
  H          -1.99772289163146      6.95212615704928     -0.36420777230302
  H          -3.28335114385793      5.79876329941879     -0.73702251199727
  H          -3.32701173080291      6.69946257307955      0.77684588956130
  H          -2.39682595417575      5.68441072108165      3.11585676489012
  H          -0.74328211914633      5.75792704746059      3.74459951373152
  H          -2.03845192527908      7.99979275086134      2.13572387324114
  H          -1.86232330614590      7.94518182533564      3.89187580031499
  H          -0.42797578676475      8.00328557866848      2.86050629500081
  C           2.00334277471523      7.15843440984314      0.96445614682191
  C           0.88102977634859      7.64963059321532      0.06557204026081
  C           2.39950657163029      6.40660487270983      3.23549242586287
  C           3.69983294130227      5.62326049165621      3.07448301914497
  H           2.53293800564278      8.02106327561963      1.37971250719984
  H           2.71198334876807      6.58051351344915      0.35152684114634
  H           0.17456962886431      8.25664848752881      0.62392915389693
  H           1.29883591610536      8.24313565308428     -0.74423439851918
  H           0.35808841321581      6.79749613113244     -0.36239205885419
  H           2.63370755880899      7.46211041182789      3.41613110119064
  H           1.86251697682757      6.05677752969420      4.11979392999374
  H           4.28834260354458      6.02562591876359      2.25399791178497
  H           4.28884735730198      5.68088454505008      3.98709389604936
  H           3.48240766790368      4.57807795422418      2.86224244922431
  C          -0.49489947608928      1.41267694971940     -0.16215338272578
  O           0.15659311217013      0.18980656147287     -0.40037573670186
  C          -1.58040144418131      1.57083187055158     -1.20342420407434
  C          -1.70020460244492      2.71094779211565     -1.98222960990761
  C          -2.71903708081012      2.82732169752419     -2.91117283348137
  C          -3.62259875954169      1.79356624399495     -3.08169364493885
  C          -3.49506298210141      0.64053897318286     -2.32542378518389
  C          -2.48213185333102      0.52973831080636     -1.39144204622437
  C          -1.10852372470893      1.42276416701845      1.24296100054606
  H          -0.98177023839479      3.51530050146899     -1.87745271916483
  H          -2.79839686066068      3.72406845398319     -3.50766916191159
  H          -4.41685958353516      1.88151526434596     -3.80813932008031
  H          -4.18741774524419     -0.17681559584290     -2.46415362337084
  H          -2.37018736562484     -0.37507949464289     -0.81404530769418
  H          -0.34751037891489      1.20997182170377      1.99207032478570
  H          -1.86803238105459      0.64592611079269      1.30402970023510
  H          -1.56980228780102      2.38450600204306      1.45284603312407
