95
Coordinates from ORCA-job A3S E -121.873610585910
  Ru          1.41222133999206      3.60178467952866     -0.15376861095860
  H          -0.01263063432461      2.37464405788107     -0.07102448804172
  N           1.86242857060500      2.49593156531789      1.57143833630504
  C           2.48774404905395      1.28040716446697      1.39908449215000
  C           1.46800100388626      2.86179283640594      2.79660979199707
  C           2.74962276069302      0.46852681729857      2.54000465479769
  C           1.73417948513074      2.11359693757536      3.92562090024404
  C           2.40040123196258      0.89077167526004      3.78586240456205
  H           3.24700401475427     -0.47725958316082      2.38544885268408
  H           1.40808190507094      2.46005883709495      4.89306353940198
  H           2.61820805522509      0.29147438844344      4.65781127997510
  P           2.88597809569682      2.07490860361506     -1.13680726945321
  C           2.55327418329790      1.26344109608175     -2.82752118828744
  C           4.73311274537150      2.62087891520667     -1.10019259799217
  P           0.58600219378141      5.10529960292625      1.38973280943253
  N           1.48329754980743      6.51209301862988      1.76763594594123
  N          -0.97481303034392      5.74933546363981      1.36338218558392
  C           2.78987793057021      0.82391041798190      0.11172759033081
  H           0.95901819052823      0.33322456757649     -0.15929606825488
  H           3.36193081835575     -0.09107099782970      0.01456692849797
  C           0.63472453462459      4.10662081623697      2.95831239666219
  H          -0.40017368320433      3.78305623262210      3.12563916043449
  H           0.95248017273193      4.64867160547301      3.84845475492049
  C           0.91044916634437      4.45057944772308     -1.70198594665841
  O           0.57377117618834      4.97173551763044     -2.68084673389173
  H           2.62761481608702      4.47830614797959     -0.05193543501456
  C           3.01172514875273     -0.19220005121729     -2.86965961738031
  C           1.04092410659085      1.30130548213445     -3.06724331367129
  C           3.19127557383360      2.08024593778899     -3.95074515781600
  H           2.46614384495750     -0.78315849360584     -2.13715546339847
  H           2.80581089785853     -0.60665291307583     -3.85644586077741
  H           4.07537726921541     -0.29218534675299     -2.67727021510752
  H           0.66398322910129      2.32113097189239     -2.97348906928534
  H           0.82176133175229      0.95396239003956     -4.07689439583752
  H           0.51261407871274      0.65492647380023     -2.37354459564620
  H           2.93481163053951      3.13273452627375     -3.83628839154921
  H           4.27091637045703      1.97434627121898     -3.97952273181905
  H           2.80412197092271      1.73990211146078     -4.91145659418586
  C           5.04250522536292      2.91023492399316      0.37238230311335
  C           5.69981101795972      1.52892046015116     -1.55610972646646
  C           4.94383437718405      3.91130450933619     -1.89437560639465
  H           5.00541849470912      2.00177822561676      0.97019186506834
  H           6.04079074870576      3.33620630075431      0.46628310608146
  H           4.32702455874195      3.62387799134585      0.78049995816537
  H           5.63908042772330      1.33535427533759     -2.62288622666220
  H           6.72099475535597      1.84131061457559     -1.33612780561641
  H           5.51185783397601      0.60213778526400     -1.01684955214764
  H           5.03774902478607      3.72757091193170     -2.95911905851027
  H           4.10513889614235      4.58942987735557     -1.72980744475868
  H           5.85630286716635      4.40534918702976     -1.56145439178953
  C          -1.90763411299726      5.39796725508024      0.31458428650824
  C          -2.52623445371543      6.58203009953966     -0.42528336090892
  C          -1.50998613863369      6.42107515864061      2.53468715952311
  C          -1.39037670337085      7.94359043368184      2.49752215297038
  H          -1.35514461542941      4.77496519241713     -0.40319610082003
  H          -2.73670449314683      4.80019311181012      0.72628285453810
  H          -1.75739941882249      7.24271992126422     -0.81165426330631
  H          -3.11389519705804      6.20903232773782     -1.26121870031080
  H          -3.18688969943147      7.14600899770378      0.22811202582361
  H          -2.56337310778341      6.13756904939736      2.65016625738611
  H          -0.97014924941156      6.06550951945201      3.41746547718078
  H          -1.91043600985129      8.36147422088535      1.64154001701632
  H          -1.82176442686796      8.36267163636988      3.40433928557808
  H          -0.34354861217493      8.22518160784480      2.44330391687407
  C           2.06644980206487      7.18458205807052      0.60391494015893
  C           1.00831382270535      7.65974887052126     -0.37590752628533
  C           2.34003482316960      6.62213269481800      2.94017933632316
  C           3.60688668115884      5.77151539598091      2.88971200476730
  H           2.63071008162421      8.04843790189456      0.96782093873472
  H           2.76071286450493      6.51905092694993      0.06967285227776
  H           0.30256584638740      8.32460835052016      0.11389624018779
  H           1.48453401500966      8.18938940058590     -1.19773238005234
  H           0.47739296130632      6.80066766965090     -0.77804648493027
  H           2.61866219764449      7.67807389180428      3.03696113541842
  H           1.76084088496496      6.37721554496017      3.83239858635626
  H           4.24281321420004      6.08291609911256      2.06508929782604
  H           4.16547178413860      5.87330675828987      3.81745034462513
  H           3.34893875320759      4.72361109136757      2.74897054488812
  C          -0.66654615524190      1.42382305598495      0.06400115758129
  O          -0.00045698850256      0.29697030872872     -0.41862889362620
  C          -1.03011192998187      1.25474471433322      1.53089533460542
  C          -1.86492306412869      2.15688863973553      2.17866724006214
  C          -2.22654081352377      1.96443823124678      3.50018139837306
  C          -1.75357850529122      0.86714091531013      4.19916283568602
  C          -0.93094753124045     -0.04216524457275      3.56011911425426
  C          -0.57967818894905      0.14503815001932      2.23559002447406
  C          -1.92490448727708      1.60230140881006     -0.79005772116632
  H          -2.23433220710951      3.02199990754433      1.64934515066547
  H          -2.87910270140745      2.67676364232549      3.98596075234191
  H          -2.03140142806394      0.72056979617964      5.23241211326950
  H          -0.56076602859341     -0.90606279547599      4.09182277821349
  H           0.04216695024165     -0.58570284873258      1.74146922376878
  H          -1.64539151705560      1.71716368906567     -1.83428860973596
  H          -2.50360998004553      2.46673877251044     -0.48179976501573
  H          -2.53656723961624      0.70774221638140     -0.69181267107611
