95
Coordinates from ORCA-job TSA2S_3S E -121.867293223110
  Ru         -0.09654785171262      0.29705105038200     -0.64774475694134
  H           0.17910138617791     -1.60311378605928     -0.66755898546098
  N           1.07889511617786      0.01300054514210      1.06999089748429
  C           2.41681415187179     -0.15036641962120      0.89507409754747
  C           0.56383046612542     -0.03602633696403      2.29991873734244
  C           3.26272973052064     -0.26414870970339      2.01360271973682
  C           1.36011068118840     -0.12672281669912      3.43187781381984
  C           2.73842729122032     -0.22212975175671      3.28093871146718
  H           4.32361529598524     -0.38103929791185      1.85348808142002
  H           0.90589811218992     -0.14376713008894      4.40960433089342
  H           3.37909617836789     -0.28473977785455      4.14777324875968
  P           1.98097744223437      0.64271957545137     -1.65082613742103
  C           2.41659354256460     -0.06401926341489     -3.35771000264847
  C           2.71102821168041      2.41027520154396     -1.51535779017084
  P          -1.81147080272634      0.37148639367175      0.88813436345136
  N          -2.55036753653811      1.86767655047985      1.26976697477125
  N          -3.16603342300129     -0.63194643774085      0.86334257108753
  C           2.92197233228081     -0.31788474448177     -0.44710080997654
  H           2.51981628712228     -1.59079345086796     -0.74643805291902
  H           4.00682304295932     -0.28642802351636     -0.53334372829475
  C          -0.92875226605890     -0.09707766276310      2.46304117791140
  H          -1.17969234713793     -1.15375650865916      2.62269412192642
  H          -1.23069055813630      0.44929637347294      3.35586614212068
  C          -1.09485383900379      0.47768563400130     -2.17865233188576
  O          -1.72237385284059      0.60085592109531     -3.14363181253959
  H          -0.10740802018468      1.79639744648854     -0.43215050851293
  C           3.85342278950349     -0.57536832998227     -3.43786921942941
  C           1.47744247271619     -1.24993566697544     -3.58803264294071
  C           2.12348643285973      0.96247917828912     -4.45224262174552
  H           3.99513255083756     -1.40427855696203     -2.74873840166902
  H           4.04386926912267     -0.94181306044483     -4.44640275709587
  H           4.58381550389311      0.19708375903309     -3.21916213391437
  H           0.43376033459566     -0.93760682658928     -3.52472514622772
  H           1.64626528647390     -1.66691928089817     -4.58046821645931
  H           1.67131640121677     -2.03280927326353     -2.85811160938121
  H           1.13441829670212      1.39496227530194     -4.30216781129733
  H           2.86256360980850      1.75764738810418     -4.48579991386174
  H           2.13113975535333      0.46719974828317     -5.42322149145511
  C           2.69925550174481      2.77278247187554     -0.02704055026106
  C           4.15315523118067      2.52620810729318     -2.00537595254942
  C           1.80370969453340      3.39821338148919     -2.25067993683550
  H           3.41484517075294      2.17672893100205      0.53573107255274
  H           2.96522483154888      3.82189903353461      0.09900438685838
  H           1.70582171486711      2.62416572475553      0.39648784434142
  H           4.23513937400481      2.39994869739426     -3.08061365823834
  H           4.53338057629127      3.51830405355927     -1.76056813330524
  H           4.79187222048129      1.79523510848269     -1.51267923911483
  H           1.95441834872165      3.37047112526645     -3.32433543228484
  H           0.75877989657263      3.16672681077261     -2.03928370063204
  H           2.00719068558180      4.41348508079614     -1.91157556988955
  C          -3.35100691435150     -1.59915485296741     -0.19837157423144
  C          -4.69635806856310     -1.52292114845359     -0.91662206586806
  C          -4.01126863873634     -0.76112631565383      2.03765748906821
  C          -5.25444526348371      0.12642440059319      2.01824154144124
  H          -2.54219631210765     -1.42841565004398     -0.92367859589118
  H          -3.25092708342874     -2.62177899474838      0.19765583759965
  H          -4.88785705893385     -0.51981723170316     -1.28311754358911
  H          -4.68269467672324     -2.20412963081007     -1.76455899900497
  H          -5.50649926590580     -1.82148743685465     -0.25609357197905
  H          -4.31036684204463     -1.81144268497611      2.13898865689864
  H          -3.42488046227804     -0.49463071529230      2.92211056125234
  H          -5.88277919332898     -0.09068266256467      1.16055379389808
  H          -5.83325675425036     -0.04131449637635      2.92427542001434
  H          -4.95631925304878      1.16937994674788      1.97913604301162
  C          -2.81667705175810      2.70922152894239      0.09995417019937
  C          -3.82985651017987      2.07842345630115     -0.83928812216638
  C          -2.20252519384729      2.65876669075554      2.44117849972477
  C          -0.82020160159476      3.30600924287740      2.39039632227981
  H          -3.20827659584345      3.66565861074110      0.45804109399782
  H          -1.89225694397831      2.90310872840356     -0.46389363051188
  H          -4.76218661012994      1.87512957292378     -0.31976132902607
  H          -4.02531540620468      2.75203044878478     -1.67036956250398
  H          -3.42622110156596      1.14959783610329     -1.23314509087840
  H          -2.96304505806350      3.44250758467896      2.53728867011302
  H          -2.29197776075141      2.03722023766714      3.33413185793341
  H          -0.75787035971751      4.00535450772849      1.56076477232307
  H          -0.62185199048499      3.84307404368262      3.31531564738386
  H          -0.05421388503376      2.54469171726988      2.25420795740536
  C           0.70093882492503     -2.70565854816409     -0.52269874500090
  O           1.95275548911279     -2.70672678184958     -1.01072235831190
  C           0.64958551579431     -3.03592036249647      0.96483885669488
  C          -0.54520885950949     -3.24018468297887      1.64267700395269
  C          -0.54907111846301     -3.59180308866381      2.98137731812062
  C           0.64423052577224     -3.73616013818698      3.66842376391154
  C           1.84008023977730     -3.54870538385062      2.99898123292114
  C           1.84111816772036     -3.21421949284619      1.65752426271367
  C          -0.18630534379864     -3.67923189712066     -1.31538251189842
  H          -1.48569880197194     -3.12176325920485      1.12621840919626
  H          -1.48995231179002     -3.75322712668791      3.49060078066398
  H           0.63904951270133     -4.00277701799083      4.71533895532033
  H           2.77822172104940     -3.66872386227450      3.52128267099786
  H           2.77297105645462     -3.10118059419422      1.12387365335141
  H          -0.12913461004144     -3.44391267268091     -2.37525782815081
  H          -1.22438076906033     -3.63982397103173     -1.00018563277746
  H           0.19716789697479     -4.68697230727782     -1.16461631873190
