95
Coordinates from ORCA-job TSA2R_3R E -121.868253625530
  Ru         -0.06720844524218      0.26163829061781     -0.12097968295545
  H           0.36015532347352     -1.65174047290964     -0.09406472894097
  N           1.32650981162693      0.11686063312992      1.46037432052779
  C           2.66808743381501      0.11889727805285      1.13774351102453
  C           0.96716377018916     -0.10686958703688      2.73322277682807
  C           3.63424903900289     -0.06652738762629      2.17177385045328
  C           1.87457794736679     -0.27874975441053      3.75585981090659
  C           3.24508441142212     -0.24832990768267      3.46058523779513
  H           4.67721032774827     -0.05020455192641      1.89481575923324
  H           1.52941962243034     -0.44740162675427      4.76373346209562
  H           3.96985853020401     -0.37576245468823      4.25110157087256
  P           1.87327699970732      0.80833822088202     -1.33817681086196
  C           2.33484355114840      0.04925464449373     -3.01504181923652
  C           2.14115124279477      2.70989924427468     -1.49008368626736
  P          -1.54873162025339      0.38204545066449      1.65294288449814
  N          -2.11400375955131      1.90406497661627      2.17760770905462
  N          -2.97389910018447     -0.51113377946496      1.80608187010907
  C           3.07279686628593      0.23373608268878     -0.18915923710247
  H           2.50748266551645     -1.94954657476629      0.01800753503688
  H           4.12963746880397      0.29371190546058     -0.41250974255691
  C          -0.49800948789369     -0.22651744073189      3.06053674648284
  H          -0.75717967605968     -1.29046516315667      3.14865870559016
  H          -0.69868247733956      0.22712831449381      4.03113075561469
  C          -1.20755139131806      0.20868219689358     -1.56140579343780
  O          -1.90680030035994      0.21764953195783     -2.48640682404368
  H          -0.22049322278729      1.74783761679956     -0.06903431976234
  C           3.84098826031126     -0.08233220172396     -3.23456290487321
  C           1.73777266241175     -1.35547706675391     -2.97955782844472
  C           1.66276025021065      0.80452308163441     -4.15967735595902
  H           4.26277747052717     -0.81795113996234     -2.55461182689100
  H           4.02500884323099     -0.42229093421460     -4.25335069412251
  H           4.36569478588775      0.85575099578687     -3.09816796204893
  H           0.65187463959183     -1.30603158810687     -2.88018299930492
  H           1.96271885217350     -1.90182263347216     -3.89596441803751
  H           2.14226822214263     -1.92874644428866     -2.14951071477698
  H           0.62373157882486      1.01694637613313     -3.90943702570814
  H           2.16882193895928      1.73849407539014     -4.38663045086971
  H           1.67881341288228      0.19020240179315     -5.06010073281896
  C           2.18649564056753      3.22875815891825     -0.05064963852291
  C           3.46224053638823      3.10248264642517     -2.14888951992798
  C           0.96090622750827      3.35815734335269     -2.22189829199653
  H           3.00804460775081      2.77345766748985      0.50099619320269
  H           2.32758909514097      4.30901247330373     -0.04450888350236
  H           1.25698781569088      2.99556580585869      0.46757438805627
  H           3.50388661017891      2.81790214810879     -3.19588597541233
  H           3.57602065026075      4.18577203088818     -2.09866888136625
  H           4.30212169044619      2.65229699774379     -1.62232800358871
  H           1.14886017366809      3.42866924064915     -3.28837684669271
  H           0.04694570134655      2.78194939648111     -2.06703026302199
  H           0.79524397797543      4.36694154424893     -1.84794331985410
  C          -3.29097328148655     -1.53256146137191      0.83345199920567
  C          -4.67301565235316     -1.39751048761847      0.20113528326042
  C          -3.67467035323677     -0.55702228856782      3.07838900958028
  C          -4.85935661256907      0.40264774325800      3.17354110576105
  H          -2.52800962049667     -1.45008028085848      0.04747854970094
  H          -3.21224340916998     -2.53298957061647      1.28748974059435
  H          -4.79673292889668     -0.41229880851282     -0.23846260253568
  H          -4.78134884507028     -2.14530027339778     -0.58211292800434
  H          -5.45492110303350     -1.56004720932079      0.93865024012249
  H          -4.01877876048972     -1.58428710555025      3.25089418207315
  H          -2.97362611439348     -0.30202724617119      3.87935676464529
  H          -5.60491871286058      0.18674644026908      2.41454820822997
  H          -5.32342291481050      0.31014400933770      4.15350899245123
  H          -4.51247585685650      1.42327896882342      3.04786364256597
  C          -2.50315631019220      2.81871253434364      1.10232262929035
  C          -3.54393543152014      2.21498428189400      0.17609217386325
  C          -1.56478678265515      2.61674283934743      3.32210883591441
  C          -0.18811072889290      3.23788898178035      3.09638978045810
  H          -2.91416556967352      3.71895990443721      1.57064640980884
  H          -1.63297953498466      3.11306496407994      0.49710603106172
  H          -4.42979060017918      1.92058628712216      0.73069930672127
  H          -3.82229795384448      2.94464697940073     -0.58082490992137
  H          -3.12266333213658      1.34303646321592     -0.32119147611845
  H          -2.27856081856769      3.40798776613272      3.58103232991545
  H          -1.52746936839523      1.94389709276122      4.17965611395906
  H          -0.23292056440154      4.00120019503096      2.32398411505688
  H           0.17042917161826      3.69724125859710      4.01452425856983
  H           0.52136931785796      2.47331270529678      2.78706226673053
  C           0.69872755308315     -2.73620402574298      0.03541906409680
  O           2.07501738994889     -2.76377403790932      0.33367577603951
  C           0.37696824617787     -3.49528593086174     -1.23934411426873
  C          -0.83643855945137     -3.32422400874133     -1.88946135261069
  C          -1.11432583166377     -4.02512472058899     -3.04890229939929
  C          -0.17693645458220     -4.89968779431338     -3.57383518963410
  C           1.02734075495624     -5.08852713306357     -2.91975119059623
  C           1.29798652665571     -4.39931945091402     -1.75161367924107
  C          -0.02897394923662     -3.41873441433136      1.19466816530601
  H          -1.55943217449864     -2.61799147953444     -1.50171735403173
  H          -2.06059955449919     -3.87681446585581     -3.54763922560489
  H          -0.37873650923786     -5.42276530607780     -4.49663674916037
  H           1.76210269313010     -5.77084994394185     -3.32179078115574
  H           2.23538966962341     -4.53871529722857     -1.23408372724756
  H           0.13142843281336     -2.87113447051854      2.11887155816899
  H           0.40002246659809     -4.41164604061986      1.31289601798127
  H          -1.09352720274963     -3.50888222445354      0.99595512392198
