14
Coordinates from ORCA-job NEB E -29.407351488360
  C           1.27421521932210     -0.37648680282810     -0.60171264579004
  C           0.52909943176846      0.58445412798526     -1.28655833360330
  Cl          1.03981879046601     -2.03754131958116     -1.08858206750657
  H           2.31534610249571     -0.17452796034521     -0.37512184169653
  I           1.29673780805148      2.60554345588762     -1.09439044001176
  C           0.33932734959419     -0.27107956824750      1.11346232190766
  C          -0.98120029970146     -0.50244757174908      0.74129043678992
  C          -1.60445759319725      0.45198493535884     -0.10282002894090
  O          -0.70860447641769      0.45885634574116     -1.49955650458405
  I           1.29936529083628     -1.66609981102132      2.38804771576868
  H           0.64661748833873      0.73608001386875      1.36881532715015
  H          -1.35445714962721     -1.51591149711529      0.73608904811485
  H          -1.49886844754592      1.49942805160330      0.17114761848181
  H          -2.59293951438343      0.20774760044272     -0.47011060607991
