14
Coordinates from ORCA-job NEB_reactant E -29.433488603960
  C           1.89070552876020      0.27517848343321     -0.06824752428236
  C           1.53733793401681      0.81813205053307      1.08972104998375
  Cl          1.67654396370176     -1.40182374068442     -0.37779197971202
  H           2.34298669920913      0.83877914963639     -0.86547791831386
  I           1.85883056659612      2.92580607810168      1.30619864741634
  C          -0.44977257367981      0.27519016188405      5.20981511231566
  C          -0.29421021833324     -0.25242617201123      4.01136940603591
  C          -0.09427413131390      0.57880135809256      2.78433035721942
  O           1.10599235985661      0.14633464388802      2.15219972503516
  I          -0.75997419695722     -0.87481303061327      6.93534860289854
  H          -0.45250195939516      1.33634387251302      5.39653807027193
  H          -0.28316076853803     -1.32034311697219      3.85226623289093
  H          -0.02140973000950      1.64431718206403      3.04098924169689
  H          -0.93939347391378      0.43782308013510      2.09424097654371
