14
Coordinates from ORCA-job NEB_product E -29.451865548190
  C           1.48130144477202     -0.32851622701958      1.87766704894194
  C           0.93870447336263      0.49277073450201      0.74296921319613
  Cl          1.02028864465447     -2.03477724939419      1.60190121530732
  H           2.57393556623170     -0.28339198127049      1.89212843591082
  I           1.90230797737781      2.43748165979726      0.65688365489717
  C           0.90267287033764      0.20639238565371      3.18828318160178
  C          -0.58357934059018      0.17896552037542      3.21365156201120
  C          -1.31855060137618      1.24336930658207      3.48129615481224
  O           0.09277997392160      0.22603260242849     -0.02814989868727
  I           1.69910851542777     -0.95860740630811      4.85123366157028
  H           1.27695513476755      1.21754733943294      3.36081648057136
  H          -1.03704935196581     -0.77836143333330      2.99875788200688
  H          -0.87721694747557      2.20165335326530      3.70460649305743
  H          -2.39305835944543      1.19754139528846      3.48645491480271
