21
Coordinates from ORCA-job R E -31.248984410290
  C          -1.27721900112423     -0.03628237542729     -2.74924806957510
  C           0.01093804105410     -2.71042533392814     -2.15722196956236
  C          -1.28163144387736     -2.41767697479212     -2.03873643432691
  C          -1.83842612711246     -1.08617794725451     -2.13232745344970
  C          -1.09201140604156      1.93050759344104      0.45091992761438
  C          -0.36698768911154      0.85611614787615      0.22140679874417
  H          -1.99166863433096     -3.20655907790440     -1.82491290343070
  H          -2.80397673464348     -0.92792912336945     -1.66608856285036
  C          -1.91690708122780      1.28738956805114     -2.73212455942400
  H           0.37213829918844     -3.72041613866017     -2.06728213013063
  H          -0.33567181662443     -0.12098535858614     -3.26995169347763
  H           0.75360792594452     -1.94869057917229     -2.32410085798835
  H          -2.02904656974358      1.85150165656437      0.97143605346593
  H          -0.64051698774403     -0.14125581478726      0.52778371072775
  H          -0.79033709009032      2.91055982955137      0.12571688856368
  Cl          1.13419045020085      0.90789947236034     -0.61661417041519
  O          -2.98704455347031      1.49762782855909     -2.20118866111671
  C          -1.11816080595447      2.37001805019871     -3.41450977725530
  H          -0.14184254911233      2.45016450887119     -2.94005613312417
  H          -1.63747459542569      3.32218140551941     -3.34869659184682
  H          -0.96576163075336      2.10832266288896     -4.45977341114199
