21
Coordinates from ORCA-job TS E -31.231692550340
  C          -0.38766911635859      0.12097553520707     -0.68972704599404
  C           0.97260124518657     -2.17759472663873      0.32606746012702
  C          -0.35955570177287     -2.19694077064285      0.05213713798955
  C          -1.02567820845508     -1.07338616380644     -0.46240305881544
  C           0.23145125722498      0.53553295325036      1.42560553286192
  C           1.06088309011120     -0.44893259255803      1.85386699984082
  H          -0.96655973705625     -3.01529593501704      0.41455692647611
  H          -2.10698863967460     -1.07334914013396     -0.48655956626538
  C          -1.18070548616584      1.31321468047667     -1.04770833457510
  H           1.43299968990079     -2.99947348045217      0.85017878947920
  H           0.66068141768539      0.15001485752566     -0.94125610383492
  H           1.64822373036327     -1.54996895505452     -0.22535860477211
  H          -0.79772503743321      0.53204946478166      1.73583073020796
  H           0.76289382625762     -1.22070537088502      2.54147281415234
  H           0.63261155324807      1.47138677071522      1.08032628495510
  Cl          2.78206206071339     -0.21637853134479      1.78392784224578
  O          -2.36631640560116      1.40277043782432     -0.81657753035645
  C          -0.39702263208913      2.41478630987736     -1.72064024620930
  H           0.45889480439930      2.69539696656144     -1.11065461178132
  H          -1.03098975680497      3.28158514957952     -1.88516037656718
  H          -0.02409195367888      2.05431254073427     -2.67792503916456
