23
Coordinates from ORCA-job NEB_product E -45.181993511990
  C           2.51881764444381      1.08546550352527     -0.28200622860610
  C           1.24248873060258      0.95722137184180     -1.06206265886579
  C           2.36476817846516      0.34941283374974      1.05993392080992
  H           3.35407729062900      0.65905135191461     -0.84781428850162
  C           1.46338924094557      0.71178448613446     -2.58726299067152
  C           2.81336222669135      2.61021244348360     -0.13228952872775
  C           1.92313620202333      3.27648594149751      0.86970651407737
  C           0.79193099521644      3.87646740896823      0.55172334268573
  O           0.13239120363005      1.03219023785861     -0.62422214404027
  F           4.13185832769098      2.75359188155394      0.23833732114335
  H           2.73158925137449      3.09308394858132     -1.11522549909540
  H           2.27399664899111      3.23356465914873      1.89039243382167
  H           0.43965544641842      3.93405538681360     -0.46480181838871
  H           0.16653047782666      4.32974018541261      1.30013446362759
  C           3.66043463499021      0.29063585193333      1.85710594538360
  H           2.03591342845538     -0.66946841050371      0.84099957568692
  H           1.57712613753668      0.83257535438246      1.63929581201794
  H           4.44865313067185     -0.17527529753185      1.27034880444631
  H           3.50836146957655     -0.29932293850896      2.75731294218271
  H           3.99573629598109      1.28096858075980      2.14866231486334
  F           0.32296800146491      0.63415360768660     -3.26480497520535
  F           2.19223964917351      1.69867846029642     -3.13549830960938
  F           2.13947538720087     -0.42847284899814     -2.79266494903455
