23
Coordinates from ORCA-job NEB_reactant E -45.179063132910
  C           2.56542994142108      0.18304750152330      0.11421529082964
  C           1.95559614485266      1.15943490388832     -0.55193749724561
  C           2.48781556107138     -0.01473702559476      1.58985410505468
  H           3.13745494120579     -0.54452048965680     -0.44396476077914
  C           2.09672063424471      1.23940828000869     -2.06272421412764
  C           1.66464201800170      5.07821265218077     -1.27045575072803
  C           2.35210863597899      4.12096143098313     -0.67623206936816
  C           1.78503396952356      3.31279488310438      0.45141027543650
  O           1.14681202256512      2.10773052015819      0.01599184237140
  F           2.16891715874741      5.78673587300888     -2.28437022597446
  H           0.66560045001042      5.39603330513180     -1.00730755423690
  H           3.34129387120876      3.86981286316442     -1.03088075687996
  H           0.98507685746759      3.85923713570891      0.95440265597347
  H           2.57585238544944      3.06622586944035      1.17115844521196
  C           2.09968046208563     -1.45370320214802      1.92475283948517
  H           1.76016556762485      0.67750643344154      2.01501744622380
  H           3.46894328711904      0.19955448301444      2.02435770406918
  H           1.12444974748985     -1.68804050431023      1.50603332134519
  H           2.05562085940486     -1.58815292266423      3.00229294684309
  H           2.82749305696477     -2.15157078385097      1.51788937936694
  F           1.96810681668582      0.03562368084461     -2.64619543515415
  F           1.20074392285616      2.04765246449773     -2.62795272315192
  F           3.31594168802042      1.69125264812555     -2.43355526456505
