19
Coordinates from ORCA-job NEB_product E -33.390870138560
  C           2.97407604387805      0.54453440442821      0.59510629523272
  C           1.51083350711029      0.61518698574552      0.25882357618938
  O           3.40858729341111     -0.77316017949801      0.48216956828123
  H           3.54513806710708      1.18971107765991     -0.08872710510307
  I           0.97356470123271      2.51035575862552     -0.66633993015987
  C           3.14341612293023      1.04751632022635      2.07296395727176
  C           3.04696812068623      2.54146417961916      2.16455694986939
  C           2.25149334956555      3.16381895066153      3.01423069439974
  O           0.67696496183255     -0.18957529031955      0.46090436170402
  O           4.33125320198226      0.49306254329960      2.60059719024896
  H           2.35594644744159      0.57995615704908      2.67849256190764
  H           3.68011568923847      3.10026941176986      1.48908885758198
  H           2.20268140192069      4.23780893639775      3.05606092503233
  H           1.61158721868281      2.62535383033810      3.69360328845479
  H           3.81979575447410     -1.03159057696058      1.32345335705170
  C           5.54766605936892      1.09910890475618      2.20715706915088
  H           6.33144715311680      0.47387417432071      2.63042131766251
  H           5.63558837231939      2.11068366207115      2.61175517049840
  H           5.65817653370116      1.12692074980950      1.11958189472555
