19
Coordinates from ORCA-job NEB_reactant E -33.384796018570
  C           1.64067144072276     -0.12782698993275      0.38540402800412
  C           1.75970851916013      1.18988338240702      0.25213462502965
  O           0.99584949100418     -0.68903499064413      1.45298228906082
  H           2.05614260123687     -0.78991439376043     -0.35949431102385
  I           2.88637005662457      1.89343303922784     -1.41688570165879
  C           4.09718892126720      1.19761808972021      2.67041035798427
  C           3.32489909920013      2.24700894395649      2.40799697649576
  C           1.83445112765356      2.14466446396940      2.40473619194421
  O           1.31636598467449      2.15909942078223      1.06094162837732
  O           5.44125115621902      1.11194139801898      2.64387089114470
  H           3.67202597592450      0.24926268483259      2.97558586526767
  H           3.73134387347438      3.19476600350107      2.09082274166701
  H           1.36854392282593      3.01581291084410      2.86981374339362
  H           1.50096907817989      1.23089518080230      2.90698176388103
  H           0.86540319463847     -1.62978565473664      1.30006964463090
  C           6.15860435862640      2.24821808836931      2.21404106983620
  H           7.20879252435396      1.96347223807051      2.23002559795999
  H           5.99784277195321      3.09484103291325      2.88806230000371
  H           5.87157590226035      2.53364515165868      1.19760029800165
