18
Coordinates from ORCA-job NEB E -30.031454493400
  C          -0.28941906207941     -0.64681167094036     -1.56128474931872
  C          -1.37928565747892      0.14045483755268     -1.28531493844134
  H          -0.46265144603100     -1.70880534724401     -1.61240853485163
  H           0.50176923123572     -0.26850098619062     -2.18606904289775
  Cl         -1.18079449449759      1.88475604807445     -1.64865016212180
  C           0.58617819141561     -0.76341145896326      0.37923121329712
  C          -0.36955610082782     -0.13481657419701      1.17507637055653
  C          -1.68222817674698     -0.60155743584882      1.15451311706578
  O          -2.29829829274457     -0.15243613896274     -0.49134681839999
  O           1.84392584297031     -0.33104781357169      0.18755963129951
  H           0.56865229933021     -1.84497507519321      0.31208163419298
  H          -0.21540170904266      0.90049765084605      1.44492000378657
  H          -2.42691549372675     -0.08707580312045      1.74104184188450
  H          -1.85398378382925     -1.66183716614652      1.03434038896355
  C           2.10061900711427      1.05585871042642      0.31957171905525
  H           3.10051358133116      1.21298489859239     -0.08051317873850
  H           2.07888044847221      1.36274452709966      1.36870361257342
  H           1.37799561513547      1.64397879778702     -0.25145210790547
