18
Coordinates from ORCA-job NEB_product E -30.074922029100
  C           3.48726197724264      0.77338701076881      1.00428921876402
  C           2.07819306523319      0.50099395831821      0.61763015158070
  H           4.15097963877330      0.28338209686341      0.28899828299207
  H           3.68072018068914      1.84468385394829      1.03229022270274
  Cl          0.97172824966082      1.77308582473973      1.16785466033289
  C           3.77048770759436      0.14957794436743      2.40911103057605
  C           2.99348193222876      0.88039376655535      3.46924604829624
  C           2.19613431873308      0.27777545387423      4.33019091143909
  O           1.64284197368075     -0.44320217570599      0.05025768143097
  O           5.15831769386969      0.07909980182926      2.65136481372903
  H           3.46344026837250     -0.90243665321579      2.38347967898838
  H           3.12041615746447      1.95402689153693      3.49332664352567
  H           1.65052356648112      0.82706006877967      5.07821592118281
  H           2.05175872329962     -0.78990284431655      4.31795395724960
  C           5.82033620063840      1.28559825946807      2.95803173463462
  H           6.87646815446430      1.02898937692807      3.01781719507518
  H           5.49659364079491      1.69105526469069      3.92158144571335
  H           5.68271655077892      2.04233210057018      2.17946040178662
