18
Coordinates from ORCA-job NEB_reactant E -30.063417442840
  C           2.40504861158297      0.26864912850023      0.38272879674576
  C           1.51962140972619      1.01587560236311      1.02156899711995
  H           3.10056486491588     -0.35883554218910      0.90584497214169
  H           2.45531236554113      0.28401555875936     -0.68805621445330
  Cl          0.42655257309707      2.03897416514109      0.15442618233697
  C           4.50844522235935      0.01560807160841      3.28424050246622
  C           3.46711573816560      0.83718620056934      3.34856979357666
  C           2.04897490710693      0.36559840017910      3.24814590818411
  O           1.27416358409966      1.13826129788907      2.33850056752289
  O           5.82047116876107      0.31077976278461      3.37773353977550
  H           4.38227289892232     -1.05312591147938      3.16183662201723
  H           3.58121685596166      1.90212115308208      3.47488103282367
  H           1.53212069731654      0.51032747831982      4.20292033074974
  H           2.00552702395504     -0.69558532549312      2.97612787792456
  C           6.17597248576974      1.66568758227016      3.53709119606434
  H           7.26312487264914      1.68800796182611      3.57955865057076
  H           5.76393067406455      2.07509453091449      4.46432632060290
  H           5.82916404600516      2.26645988495460      2.69105492383035
