17
Coordinates from ORCA-job NEB_product E -36.906512157120
  C           2.19843709531288     -1.22404248991607     -1.84857139431721
  C           0.91773717949935     -2.05947943253491     -1.66309838474356
  Br          2.22772550534083      0.28638753044380     -0.59746556631218
  H           3.06532539581940     -1.84793074887433     -1.59789543784757
  O           0.54776383815898     -2.30143134814676     -0.41704863890184
  C           2.31892642219414     -0.73456076724719     -3.28591186098861
  C           3.50567220719971      0.16395127750273     -3.48897622536047
  C           3.43505680942143      1.33253670697990     -4.09751536054930
  O           0.32879419610802     -2.47622278206980     -2.61512890362776
  N           2.54378417723977     -1.92562374358509     -4.17949789689860
  H           1.39680061218229     -0.25544269130929     -3.62869266032051
  H           4.44274760482816     -0.22216919581887     -3.11014253028541
  H           2.50679276249910      1.71940937563285     -4.48364442604422
  H           4.30556451522367      1.95081572485160     -4.22624616954887
  H           1.07698170244840     -1.84075784644834      0.25451911865096
  O           3.20979900527972     -2.82178897775838     -3.72695144954177
  O           2.10049097124414     -1.85065059170183     -5.28893221336309
