19
Coordinates from ORCA-job NEB E -43.513653647730
  C           0.11434452678204      0.09384116816763     -0.01577785418167
  C          -0.82287599311726     -1.80781663529427      3.06300913237439
  C           1.15585139444551      0.10023272999444      1.01420409719592
  H          -0.80158343419017     -0.39631431184859      0.25673920524316
  C          -0.59801885463905     -1.49200674896082      4.32473681211021
  C           0.19844223475839      0.89402631917029     -1.26147354472359
  C          -0.64950985600547      0.28809305292011     -2.35744773105150
  C          -0.14398467783905     -0.29043643562357     -3.42866172428174
  O          -1.06465968447189     -2.10276258539819      1.96706134407268
  C          -0.32703476596278      2.22222710218901     -0.96669229697593
  H           1.24002016085544      1.00574947456633     -1.58911155898942
  H          -1.71685927320749      0.34923385138521     -2.19726240150315
  H           0.91749938407519     -0.36300670307570     -3.60044273890761
  H          -0.77784309912843     -0.72380209656020     -4.18358702585626
  F           0.65152014537753      0.41046643138711      2.24547361459862
  F           1.71977798992049     -1.12813466144687      1.20710928166567
  F           2.16765564382476      0.93666655527726      0.78673616152344
  N          -0.46288918034065     -1.22777660305461      5.45968805649661
  N          -0.79985266113709      3.23152009620544     -0.72430082880981
