19
Coordinates from ORCA-job NEB_reactant E -43.652250115340
  C           1.79433964365360      0.02428361962184     -0.29562295417236
  C           1.29086460106538     -0.96341148174125     -1.06116942622709
  C           1.67403571639791      1.50384259785011     -0.42506750731982
  H           2.36909007759737     -0.26803171597518      0.57010258311860
  C           1.59533626597532     -2.29128008450428     -0.60022186169615
  C           1.42597905798401      1.70200445627152     -4.43716697377343
  C           1.30035385580181      0.49606970640583     -3.88928158411980
  C           0.20218529091545      0.12226283503676     -2.94182232130296
  O           0.53908393250549     -1.01468527287495     -2.15999672685249
  C           2.44519386954348      2.00109667571442     -5.36275438614907
  H           0.75287632702201      2.51546128930839     -4.20114609793588
  H           1.98943487803637     -0.30008553957043     -4.13850990511134
  H          -0.66630762800082     -0.21848907864057     -3.52062900735588
  H          -0.11694657646907      0.96799187037874     -2.32848450176806
  F           2.31873141358321      2.11608281502693      0.57096531515679
  F           2.18290644960512      2.00339639438317     -1.56942375156484
  F           0.39760873073459      1.94959409719117     -0.37528653430912
  N           1.84370348423505     -3.34310340592103     -0.22970437927051
  N           3.26413060981375      2.25060022203880     -6.12447997934660
