19
Coordinates from ORCA-job NEB_product E -43.647471695980
  C           1.55665346681823      0.06491965527920     -1.62065809430110
  C           2.01087761291027     -1.40025345804731     -1.69528861126603
  C           2.50708494487498      0.88035975057753     -0.73692940773256
  H           0.57970448435546      0.07085418632291     -1.11552100321738
  C           2.48359491148828     -1.94389937552233     -0.43455618597435
  C           1.38253512850127      0.64677195493066     -3.04446306379653
  C           0.34923848079551      1.74702184327015     -3.09396365933339
  C          -0.76460365956020      1.64719516868270     -3.79279399484416
  O           1.94215305407881     -2.05922380266385     -2.69384502016185
  C           2.63961359388692      1.14719854602772     -3.56669771067972
  H           1.06490280794584     -0.17888309548025     -3.69680729067651
  H           0.58333512930822      2.63731455550512     -2.52876748732616
  H          -1.00322353131949      0.76918523808855     -4.37121317826730
  H          -1.48515938689148      2.44563587913036     -3.81669457978087
  F           3.79244479726130      0.60104054106804     -0.96544786544793
  F           2.35217597618109      2.19635570400111     -0.90023869992606
  F           2.28082391715913      0.63657501854209      0.56360661875491
  N           2.83963070641219     -2.41277386289815      0.54538766411859
  N           3.61481756579366      1.56120555318574     -3.99070843014161
