25
Coordinates from ORCA-job NEB_product E -51.406356682280
  C           2.90013647297795     -0.99075222417066      0.63179804740236
  C           1.53823745557588     -0.63283069796718      1.14633176355729
  C           2.77588312134265     -1.40506389397959     -0.83580056745197
  H           3.54670161884652     -0.10549333581482      0.65052984048613
  N           1.60775240689209      0.30707421717328      2.38336159034387
  C           3.49162846565088     -2.04222204588684      1.63045669962868
  C           2.46407817979241     -3.08558287040235      1.97775199498206
  C           2.09085234600541     -3.34162308303359      3.21731683936723
  O           0.46634941275422     -0.98008062664404      0.79544183310288
  C           4.82784846741483     -2.65824898241884      1.16363033093807
  H           3.71317033190273     -1.46425123660409      2.53467258371933
  H           2.03279915343868     -3.62946720916518      1.15086990617346
  H           2.50429440624792     -2.81032777595248      4.05988297414208
  H           1.36021260916827     -4.09790058342733      3.44325146111015
  F           3.97078642730876     -1.51785510282604     -1.42768202443954
  F           2.12824170842695     -2.55067691044700     -1.03678519619038
  F           2.11535397056550     -0.45881402205611     -1.52354430195419
  O           0.56401153977138      0.50288150004378      2.93524275846674
  O           2.69280061883890      0.74719515766634      2.67707081658860
  C           4.71786518026268     -3.95216493056176      0.36456510976174
  H           5.40338739822681     -2.87437623066577      2.06605215008428
  H           5.38728467963846     -1.91642944533538      0.59169995513521
  H           4.25232621357109     -4.73160367717306      0.96231009959818
  H           5.71609651205479     -4.28429563448774      0.09059061589045
  H           4.14780130332423     -3.82989035586353     -0.54991528044269
