21
Coordinates from ORCA-job NEB E -46.495559777250
  C          -1.71556710777552     -0.59320212937635      1.33737129466840
  C          -0.61399459243658     -0.94676182179393      0.54876260215278
  C          -2.89309077161751     -0.04183455210647      0.89284869020731
  H          -1.61454386882364     -0.86824570730132      2.40170205420473
  N           0.35266009046217     -1.80652512751406      1.19654064386935
  C           1.70678759830010      1.22555958001593     -0.96211460522956
  C           1.19212937131424      0.48082132743086     -1.95761305169491
  C           0.48525431480245     -0.80455080342478     -1.68254864482445
  O          -0.49702601865892     -0.50480654931116     -0.68061220714958
  N           2.35663065071446      2.39460041300142     -1.13350937148138
  H           1.67140360529556      0.88121953105607      0.06391526657976
  H           1.20072625933092      0.87010819979637     -2.96225995040842
  H           1.15721583618225     -1.60192431668950     -1.35849808487825
  H          -0.09062740450077     -1.13490390958207     -2.55111024285822
  Br         -1.69416953512979      0.41121992480615      5.13670041637744
  Br         -4.39542019591399     -0.11782409663290      1.98145855230102
  Br         -3.15431649303239      0.64469097095068     -0.83849720087397
  O           1.25213766878732     -2.30121945072139      0.54126010636123
  O           0.23403866206746     -1.93081893295807      2.41337151926630
  H           2.36228953059275      2.82871471811902     -2.03816203514072
  H           2.69748240003943      2.91568273223549     -0.34900575144887
