21
Coordinates from ORCA-job NEB_reactant E -46.535012549680
  C           1.60095934575440      0.07386209072250     -0.27344829670127
  C           1.40375090369929      0.67925708821346     -1.45353774160344
  C           1.94400669397079      0.73850624082707      0.99173103404728
  H           1.53632744410949     -1.00735263948729     -0.24794285348273
  N           1.10753349401486     -0.18789537088519     -2.61382678093207
  C           2.55755788731002      2.58510364803397     -4.71416944174830
  C           3.01922887339231      2.07973170358882     -3.56079046297664
  C           2.60232318549290      2.60854219389831     -2.24248555942634
  O           1.38110830920992      1.97491753561247     -1.72051334749655
  N           2.92450199871450      2.16538234964836     -5.95220204536276
  H           1.88854861028354      3.43445052555304     -4.69729174406380
  H           3.67234752965503      1.21798987718489     -3.56776267255929
  H           2.30516228063277      3.65532099827409     -2.29576003291563
  H           3.38668935008856      2.48126116541233     -1.48927706879396
  Br          1.18851569883789     -0.24614585659363      2.50546374214837
  Br          3.93385746441625      0.71154046123614      1.19973839529514
  Br          1.36700588130804      2.58417762559305      1.13658773049742
  O           0.88066733742989      0.37854675415372     -3.65633730355946
  O           1.13554756817495     -1.38798075315331     -2.44551556591604
  H           3.38688133953980      1.27237814032712     -6.01496797610407
  H           2.32737880396478      2.39920622184011     -6.72619200834589
