21
Coordinates from ORCA-job NEB_product E -46.527517174690
  C           1.82398063041362      1.32354406869538     -1.45172691558706
  C           1.09672791668169      0.27748781403438     -2.22591128044170
  C           0.88815123535183      2.02170038771340     -0.47903774346094
  H           2.62815759847860      0.84286547144088     -0.87753447202142
  N           1.93133128665411     -1.02557720769792     -2.39385355041035
  C           2.52239226629075      2.29852946854760     -2.47640849712051
  C           3.45437161135576      1.48661141525486     -3.34234701526392
  C           4.75603289558608      1.40653419276956     -3.14667312756774
  O           0.03920683194540      0.30717251911198     -2.75594935143072
  N           1.51976871602322      3.03916893930113     -3.19098823856387
  H           3.10973582551713      3.00473938583593     -1.87841294190190
  H           2.98040247787620      0.97331518150550     -4.17115366803432
  H           5.23812536079304      1.91664778681841     -2.32915512511359
  H           5.39056406836413      0.82281872474197     -3.78977222285352
  Br          0.23238742549936      0.67173065178096      0.80433175115890
  Br          1.86441654828445      3.36251885087744      0.53957851440676
  Br         -0.65323098301040      2.86613327009004     -1.27102562547942
  O           1.53376945391031     -1.77255585675427     -3.24222321222763
  O           2.88945728141492     -1.16503249580508     -1.67403890251281
  H           1.08420547643916      2.50502385546675     -3.93354215934190
  H           1.86814607613063      3.91142357627107     -3.56105621623232
