14
Coordinates from ORCA-job NEB E -22.799291785910
  C          -0.28923388548852     -0.54873500642634     -1.28535251392220
  C          -1.27607544466726     -0.96827914354565     -0.39934176301033
  Cl          1.37257391295712     -0.03029084729523      3.00735299281196
  H          -0.42080283440978     -0.68248769784183     -2.34942543455111
  H          -2.09577613019338     -1.62940787620327     -0.61663580291704
  C           1.07723616251432     -0.28299040899679     -0.73296770502634
  C           0.27611789196307      0.90035321935329     -0.34202306360434
  C          -0.55054078751120      0.76718871592447      0.79475381345235
  O          -1.35014230736356     -0.32806408984673      0.75246023781877
  H           1.41447485295423     -0.93649857607750      0.06289908629714
  H           1.83989592117230     -0.10581399079063     -1.47776421155119
  H           0.53415152132304      1.87974374012304     -0.71950355061017
  H          -1.02427100917867      1.60483715785354      1.28494439236595
  H           0.49239213592829      0.36044480376964      2.02060352244656
