14
Coordinates from ORCA-job NEB_reactant E -22.821136758240
  C           2.12225222973309      0.19921559112622     -0.29594019947932
  C           1.25264159985251      0.81645395944605     -1.08973409551782
  Cl          3.43622394786865      0.88444223826077      0.60938086984371
  H           2.05235724924966     -0.86688947217140     -0.16496967275246
  H           0.50067359122145      0.19423838955668     -1.56286126835408
  C           3.80383080778032      4.20509058838079     -2.28891908795966
  C           3.22287650413105      3.11795655311885     -1.82020207690378
  C           1.93798550158041      3.12281441340813     -1.04513157212873
  O           1.05009736356129      2.09082826881890     -1.45559860119638
  H           4.73638713510880      4.16358654701326     -2.82433341534738
  H           3.37670070007646      5.18410758690900     -2.14578248790784
  H           3.66248527912215      2.14258521689548     -1.97426417278345
  H           1.38785118223694      4.05016679096531     -1.22634627653386
  H           2.14363690847721      3.04260332827196      0.02850205702106
