14
Coordinates from ORCA-job NEB_product E -22.828218134590
  C           2.72684618535558      0.94488785964478     -1.60157357231399
  C           1.28639715549567      0.95877928529960     -1.15048671037387
  Cl          3.74599597314816      0.09928997745725     -0.40024751868156
  H           2.79137095967149      0.36517615755524     -2.52878628725098
  H           0.64537406985158      1.52536341283473     -1.85659427640890
  C           3.23070302810839      2.37411519905046     -1.83919169215218
  C           3.03869570191281      3.23030280015304     -0.62409349063369
  C           2.32210616549867      4.33713633701692     -0.60381804892233
  O           0.84353911421730      0.44273547684265     -0.17139146877149
  H           4.29282034724857      2.32604017503850     -2.09096742463945
  H           2.69149140435094      2.79893428954475     -2.68897131007050
  H           3.53154888130683      2.87417799339227      0.26944332027845
  H           1.82313759876922      4.70945038301751     -1.48428001921632
  H           2.20927341506478      4.92471065315230      0.29035849915683
