18
Coordinates from ORCA-job NEB E -34.666350505900
  C           0.61295735481855      0.30576427725466      0.83611674949326
  C          -0.63607532551713     -0.01902760971200      1.56709523514393
  Cl          0.71112116084127      2.11778061086738      0.61341106384037
  H           1.50918674940924      0.05397621741374      1.40631397098145
  C          -0.94298296489116      0.58751441045457      2.76700640718918
  C           0.63408049418513     -0.44983408746469     -0.52645649164252
  C          -0.65493594710536     -0.19337252606606     -1.19366763112585
  C          -1.85268809431536     -0.51254349397410     -0.40211366945939
  O          -1.54357014351839     -0.83492534162080      0.97156192767843
  C           1.85011077940727     -0.12274761021965     -1.39262341840542
  H           0.70277652460324     -1.50960975321450     -0.23662251696164
  H          -0.71586579342131      0.50400068733115     -2.00902904737278
  H          -2.35681174926115     -1.42366693443239     -0.75232649282596
  H          -2.58946611563652      0.30914230501688     -0.44364710418051
  N          -1.16279625417354      1.05511776871408      3.80286319779637
  F           1.69226320183747      1.05685595473128     -2.06421874234772
  H           1.98559755611813     -0.89598663930451     -2.15662188475473
  H           2.75709856661961     -0.02843823577504     -0.78704155304648
