18
Coordinates from ORCA-job NEB_product E -34.723511007110
  C           3.04026769909215     -1.67063589662862     -0.82078149162455
  C           2.00095650490396     -2.17105205930562      0.16914386608559
  Cl          2.88341540214339      0.12078918538249     -0.88195142060346
  H           4.03489747240539     -1.87199361252447     -0.40464318740816
  C           1.89737006987244     -1.33315440082022      1.35260684809688
  C           2.87996277646405     -2.34200834247998     -2.19339781536436
  C           1.72454616488405     -1.75160871998441     -2.95761799905820
  C           0.55173451567550     -2.34201260863943     -3.07648253121649
  O           1.33961040550632     -3.16272997118352      0.02120703424644
  C           4.16986461663269     -2.27434886514897     -3.01455505516871
  H           2.67556426082705     -3.40093588941079     -1.99487048790025
  H           1.91890857533892     -0.78941131017890     -3.40918145161948
  H           0.34706106089252     -3.29790389670684     -2.62277655452872
  H          -0.25530126362557     -1.88800710085554     -3.62482157446381
  N           1.81510213430512     -0.72252016433571      2.31647593284137
  F           4.52822924369275     -0.98236518612216     -3.28850678571717
  H           4.02905360822725     -2.77418799055963     -3.97860960008962
  H           5.01035675276201     -2.72751317049768     -2.47673772650729
