19
Coordinates from ORCA-job NEB_product E -34.313647634120
  C           2.78753642707447     -0.81946024706768      0.33727717845836
  C           1.37265057723656     -0.40227087040936      0.61796644488319
  O           3.10037174502755     -0.57945809349340     -1.00054381652632
  H           3.45715631844754     -0.24850827785714      1.00271040328559
  F           1.23184197445930     -0.09909356158498      1.94960279923848
  C           2.91907320343576     -2.34876857856071      0.65747582087360
  C           2.78519192566725     -2.60330267589256      2.12934595833800
  C           1.90382958789811     -3.44124012506102      2.64102633612095
  O           0.43702747392909     -0.33947975862980     -0.08997875829336
  O           4.10879398878501     -2.82872848044752      0.06139203895923
  H           2.12758041791300     -2.87277612583469      0.10736860325490
  H           3.45087915026779     -2.04165372096140      2.76998179858254
  H           1.82137364724106     -3.59432783509275      3.70290508465485
  H           1.22613284122011     -4.00275105661628      2.01970668757304
  H           3.61519567628221     -1.33734967388537     -1.32230284336911
  C           5.31866937825910     -2.57193281313430      0.74579510857205
  H           6.10637380139779     -2.92028996914961      0.08031460077572
  H           5.36953311221254     -3.12855809157096      1.68544370063520
  H           5.46198875324575     -1.50575004475049      0.94381285398310
