19
Coordinates from ORCA-job NEB_reactant E -34.304649234150
  C           1.68642893215208     -0.31339307243564     -0.11237439698744
  C           1.62886390351683     -0.25723292378592      1.21519792927834
  O           1.38390746748182     -1.43894992912967     -0.84490102276019
  H           1.97237656532032      0.58027055296713     -0.64529255799397
  F           1.91060922283073      0.94004938031505      1.78478900756233
  C           3.76673633019321     -3.07592168313867      0.70615969165011
  C           3.15907973057269     -2.69964564293054      1.82517216147029
  C           1.67539190013916     -2.52053710270547      1.90525168940458
  O           1.32114999822710     -1.15693754207821      2.15975630872679
  O           5.08507304871105     -3.25340586346768      0.47945201494688
  H           3.20234644616558     -3.31100437870096     -0.18675989115676
  H           3.70357700213568     -2.44715389840829      2.72164310513968
  H           1.26122753255303     -3.05331604722671      2.76511255425928
  H           1.19276604537487     -2.86717448359898      0.98756580290001
  H           1.62354036451792     -1.28620312366822     -1.76377344322944
  C           5.97117719861646     -2.98504462809392      1.54254164355036
  H           6.97098522615240     -3.17646302196036      1.15743130309208
  H           5.77445892921342     -3.64197080150820      2.39515509466047
  H           5.89610415612566     -1.94246579044474      1.86597300548659
