21
Coordinates from ORCA-job NEB E -33.494323307470
  C           0.50216472284260     -1.36713187559706      0.28098404885918
  C          -0.51886111180325     -0.90187709362466     -0.52892197247043
  O           0.24900328733972     -1.79228565127296      1.55760811909966
  H           1.36931016961673     -1.84293786933922     -0.15201728898762
  O          -0.21326584240321     -0.79403431467945     -1.86714469589758
  C           1.22979328427329      0.65341024577007      0.74653553144797
  C           0.05671723215289      1.10891830762023      1.33503656432529
  C          -1.08560573545364      1.32115074368160      0.55834486056400
  O          -1.54348988700518     -0.32623801077648     -0.02677007722523
  N           2.35516770863210      0.41221944261008      1.50140001731671
  H           1.43431363378354      0.90087692567658     -0.28748769559749
  H          -0.06221737769378      0.94912680555650      2.39848225677919
  H          -0.96318783534249      1.76186171725396     -0.42069731677711
  H          -2.00695498545633      1.58799595507568      1.05182192811918
  H          -0.63258558409340     -1.46653731310274      1.79516208154537
  C          -1.18047583320859     -0.15989867284574     -2.68020531995749
  H          -1.03477667408488     -0.54363249033043     -3.68837893977348
  H          -1.04070209829481      0.92548809117097     -2.68051554847633
  H          -2.19017075653037     -0.38833648858448     -2.33170933063069
  H           3.10784750465754     -0.05912787474548      1.02424889576276
  H           2.16797617807149      0.02098942048300      2.41422388197413
