21
Coordinates from ORCA-job NEB_product E -33.536829398360
  C           3.53243327951410      1.03061526736994      0.04140768516476
  C           2.33938927198790      1.07158465688910     -0.89603954936947
  O           3.26769789798090      0.14403519308919      1.09077791367966
  H           4.42777319205013      0.69146070042025     -0.49358537113033
  O           2.56220763230889      1.77738609866160     -1.99511757185066
  C           3.80469941889210      2.46978793946776      0.56048541083613
  C           2.58323726949998      2.98503384722501      1.27453056439299
  C           1.86965355564408      4.01853130182750      0.86985841365743
  O           1.29771997768909      0.52593394423986     -0.62482688132585
  N           4.99226103048290      2.41219858246804      1.39729409419419
  H           4.02759228643473      3.10541890527871     -0.30467982740908
  H           2.32401641296182      2.44922193207632      2.17871023958004
  H           2.12231625993870      4.56155914802483     -0.02690710412444
  H           1.00624642428333      4.36509853821950      1.41212463804576
  H           2.32234412291729     -0.07705687482307      1.04352220485127
  C           1.46354379365708      1.90280388554571     -2.89312813605357
  H           1.82875721419707      2.47757550435838     -3.73974223631141
  H           0.63585474491623      2.41959399902041     -2.40383364242673
  H           1.12326338309560      0.91678990408725     -3.21444542844941
  H           4.88406066223081      1.66311812765082      2.07445293984723
  H           5.10773216931727      3.28450939890288      1.90204164420148
