21
Coordinates from ORCA-job NEB_reactant E -33.507079863660
  C           1.69564473310070     -0.01103456037178      0.08476971812437
  C           1.80610586634745      0.97966992287103     -0.80435324850553
  O           1.41586345071763      0.16037260694096      1.43475275538208
  H           1.81217955518599     -1.02061380775603     -0.27542489514561
  O           2.03934894192319      0.59993320367270     -2.10280030851883
  C           4.29763509931588      3.81823801549387      0.90262348991215
  C           3.46579493037221      2.78086172563523      0.95072654506532
  C           2.00725943830786      2.88029813791369      0.63932953101329
  O           1.68828309790733      2.31998852831414     -0.63778164427661
  N           5.63046754061715      3.78429057931144      1.26246166119717
  H           3.93234532534944      4.80600242817766      0.65413601743873
  H           3.83444242334668      1.79519543633715      1.19552971126200
  H           1.70144849122530      3.92500043809590      0.54818844526145
  H           1.41143148314676      2.38699386093165      1.41250049006322
  H           1.67005050132731     -0.64101622096208      1.90096036329178
  C           2.06410825588363      1.63236162654719     -3.06614848048163
  H           2.25147753887755      1.13520428683400     -4.01597075466358
  H           2.86083721338578      2.35206425991159     -2.85886873145227
  H           1.10934926100624      2.16282029819133     -3.10454118819356
  H           6.03370758707531      2.86068586434775      1.31326000826354
  H           6.22731926558061      4.46208336956260      0.81655051496252
