18
Coordinates from ORCA-job NEB_product E -40.044660513270
  C           0.90289672436081      0.62387565640133      0.72461154115441
  C           0.16826298238207     -0.73484543587332      0.91363409302557
  C           2.39752905688264      0.34614452442909      0.65663124005514
  H           0.60663027959604      0.96580032080063     -0.27643772523829
  O          -0.02823965212865     -1.13799963237787      2.16304117691030
  C           0.38790615421059      1.63453934769754      1.76365483892487
  C           1.10377658073622      1.67808781113478      3.07041860342139
  C           0.52816360423527      1.35655540848725      4.21879879150696
  O          -0.20523641290798     -1.36436869749828     -0.02683759053956
  I           0.32410003997046      3.67243396776276      0.94253244836430
  H          -0.67150322589331      1.41594248027007      1.92636292004772
  H           2.12086428595641      2.04392788534271      3.05507885074884
  H          -0.49997075801295      1.03366345059352      4.28067128945715
  H           1.06492562268157      1.41998621331779      5.14837232523979
  Br          3.47600207150013      1.96922653190720      0.49479421444057
  Br          3.07536583310809     -0.64695510320962      2.21122924125155
  Br          2.77578693108848     -0.75241354279526     -0.93132668424007
  H           0.35423988223411     -0.57170118639032      2.85517042546937
