18
Coordinates from ORCA-job NEB_product E -41.990106544430
  C           3.10248572699989     -0.98883754484076      0.91897949449398
  C           1.61889182046435     -0.88201428425482      0.92659215156709
  I           3.84341831489072     -0.15216970608909     -0.92256101515515
  H           3.55044318883644     -0.40937700468159      1.72813590190803
  C           0.98836030213561     -0.98959431189324      2.35006808181829
  C           3.57287420671734     -2.47610796129080      1.07977786847483
  C           2.97089226465392     -3.33778722798801      0.00556841896815
  C           1.96299236630149     -4.16514640234837      0.20238912706353
  O           0.90893059041668     -0.75714517068935     -0.02531910670987
  O           4.96105162278770     -2.53469333735344      1.12009958349670
  H           3.23925202242576     -2.81330814929782      2.06837642298571
  H           3.42765787566942     -3.23805636282309     -0.97105447246107
  H           1.50081677002009     -4.28490871368347      1.16828995288514
  H           1.56003252884239     -4.75817467900230     -0.59972620808957
  F          -0.24686029768830     -0.50583236878483      2.37495485842346
  F           0.93216479025490     -2.26877017135249      2.75398175745764
  F           1.70479090760063     -0.32618723037714      3.26819721899417
  H           5.31990499867095     -2.41358937324939      0.22874996387895
