20
Coordinates from ORCA-job NEB_reactant E -46.064733332340
  C           1.72194406699551      0.13700166895718     -0.05625724471996
  C           0.86914307227160     -0.76799962302331     -0.52611224358804
  C           2.43345132787903      1.11611782316730     -0.93354276947232
  H           1.94464679558065      0.18056504424285      0.99616472955888
  Cl          0.09786160914879     -1.88213705166471      0.56270078349249
  C          -0.28920626040448     -2.76742821371020     -4.69214196703405
  C          -0.31363331474981     -1.79870096546377     -3.79196172666100
  C          -0.07867907610185     -2.00481226011124     -2.33309425766852
  O           0.51352329523219     -0.82104783972849     -1.82135067399960
  C          -0.57244706949532     -2.53367480848923     -6.14270888658555
  H          -0.07904911870602     -3.79897709035829     -4.45311664542799
  H          -0.52213448947224     -0.77675553097851     -4.07726048068132
  H           0.56571569262401     -2.87281672831180     -2.15010473977098
  H          -1.04527401574727     -2.18117714167000     -1.83749027872709
  F           3.77124978117018      1.14891005571737     -0.61564648275064
  H           2.05926778420174      2.13579625060334     -0.77983425122432
  H           2.35427048528261      0.83912725840875     -1.98809434951293
  F          -0.80367880852969     -1.25000469153929     -6.44205681932600
  F           0.44705473348089     -2.93407529521422     -6.92123038463524
  F          -1.65082649066053     -3.22411086083373     -6.55646131126584
