20
Coordinates from ORCA-job NEB_product E -46.085238901780
  C           1.49037742531811     -0.93181653296925     -2.13084415066215
  C           0.90246520111661     -0.97183412576393     -0.74108384690087
  C           1.66789388895904      0.52622282780047     -2.57712171670344
  H           2.49003608220244     -1.38372816277727     -2.09354292120118
  Cl          0.89368591490207     -2.59336996983880     -0.06194805347253
  C           0.60605281908097     -1.80138293864964     -3.05873476295732
  C          -0.83616011919260     -1.36826085673739     -3.05323963274158
  C          -1.81750653143135     -2.13751329126851     -2.62383869598952
  O           0.48191778888211     -0.06094270582676     -0.11288569626847
  C           1.13402371761417     -1.81280091943432     -4.49617188787615
  H           0.67231089870595     -2.84003928584738     -2.71555336652057
  H          -1.03573262503650     -0.37886376772402     -3.43835166752231
  H          -1.64192170880152     -3.13144931169891     -2.24702226168334
  H          -2.83899823598961     -1.80126046444976     -2.63251680996055
  F           2.73111584945272      0.61722192431953     -3.43112965760886
  H           1.89737814753992      1.15892507260556     -1.71368064186310
  H           0.79565786302515      0.92216992106803     -3.10232950138161
  F           0.93827509994821     -0.66563640751366     -5.15010786641681
  F           2.44087515068163     -2.09174925883537     -4.55518010377150
  F           0.51005337302250     -2.76479174645864     -5.20961675849813
