14
Coordinates from ORCA-job NEB E -25.629647518760
  C           1.02279838151512      0.97483914978828      0.40505831008993
  C           0.75493512280905     -0.05554792727645      1.28819872650679
  H           1.81844441968915      0.78439216152967     -0.30238281326279
  H           0.97179854951530      1.99356296566832      0.75808441269266
  I          -0.31044704880575      0.45627710459927      3.11114450188798
  C          -0.45326979834461      0.74465224427228     -0.93652341728546
  C          -1.04504576430092     -0.48383652802814     -0.65860070515833
  C          -0.17681752630502     -1.58567761855405     -0.48428201147033
  O           0.67521557104622     -1.26431495453593      0.93288039994686
  Br         -1.55154151568167      2.30772345497706     -0.83983470390157
  H           0.23488459519010      0.82734673248847     -1.76664760973143
  H          -1.97439470147004     -0.48742151180368     -0.10341577766705
  H           0.65648694183712     -1.67422291626169     -1.17440751490525
  H          -0.62304722669404     -2.53777235686341     -0.22927179774200
