14
Coordinates from ORCA-job NEB_product E -25.687485539750
  C           1.13154407578950     -0.12628624529298     -1.54666157026974
  C           1.82985080100837     -1.19158529061973     -0.76147943574330
  H           1.88971951593479      0.56509479044140     -1.92752110109366
  H           0.40912806669932      0.42065659048218     -0.94034521879788
  I           0.74973471711256     -1.80348593444707      1.02121583623089
  C           0.42384675843291     -0.80127427545532     -2.72696929335970
  C          -0.69139277470722     -1.69010438400370     -2.30239070338719
  C          -0.79180880389142     -2.95543840568049     -2.66707474045492
  O           2.84328941910056     -1.73015697115142     -1.03563403871663
  Br         -0.31368599039401      0.63753972122323     -3.88637933537096
  H           1.14258109606302     -1.33131340539192     -3.35585257757041
  H          -1.44271114381766     -1.22764718875384     -1.67615057637918
  H          -0.05713461897648     -3.42705989715214     -3.29962552252092
  H          -1.61016111835423     -3.57143910419821     -2.33913172256640
