17
Coordinates from ORCA-job NEB E -41.207461998760
  C          -0.90401085327799     -0.84452756326700      0.82866228430180
  C          -0.09504275805386     -0.36730008973409      1.85539567589980
  I          -0.44328823032459     -2.80426040425066      0.13908792384055
  H          -1.97440203332427     -0.69330545471704      0.88051931919607
  I          -0.95264939980269      1.24703878409935      3.02172197065376
  C          -0.25975410217135      0.40741276351561     -0.55545328014635
  C           1.12096584577770      0.21496667831572     -0.53843735553030
  C           1.82235904928641      0.54066152246195      0.65256752143926
  O           1.16508820238472     -0.43503273722776      1.80917521824334
  C          -1.01688854390870      0.09908873360529     -1.82474544200708
  H          -0.66993196778357      1.30280006500152     -0.09313795670447
  H           1.54680552818154     -0.52001264511505     -1.20688158979667
  H           1.61570285127115      1.51108563891251      1.09864204780371
  H           2.86878612830750      0.26771980674962      0.69522662970040
  F          -2.29844713205990     -0.22234289825258     -1.59719241372178
  F          -1.03865690588281      1.18438723694372     -2.61791634562990
  F          -0.48663567861929     -0.88837943704109     -2.54723420754214
