17
Coordinates from ORCA-job NEB_product E -41.256878638550
  C           1.95215642302549     -0.41478008576661     -2.43771567011841
  C           0.58014130008939     -0.98208260950057     -2.63906800012913
  I           1.81139668344122      0.53665496831420     -0.49474044815119
  H           2.71503142782702     -1.18695248275688     -2.33254914526360
  I           0.36709432019529     -2.96375504930072     -1.81668120442267
  C           2.32025991881778      0.59457992441275     -3.52590303252596
  C           3.51282970389259      1.43475623411595     -3.15702023715743
  C           3.50705230890525      2.75330750589675     -3.18676458128073
  O          -0.33812270644787     -0.43540855012032     -3.14228865066261
  C           2.65805999033332     -0.18483232316323     -4.79943702172642
  H           1.45662655694235      1.23028039042827     -3.75361614194645
  H           4.39623198472029      0.87945001743225     -2.87267040938435
  H           2.63436434871474      3.31527828304425     -3.47542762471106
  H           4.37885717811099      3.32220217133747     -2.91754369014915
  F           3.74953415933381     -0.94875264779543     -4.64044912323117
  F           1.67505850781937     -1.01571677217735     -5.17677476893457
  F           2.89572789427898      0.62997102559921     -5.82865025020510
