22
Coordinates from ORCA-job NEB_reactant E -49.670815375760
  C           1.84434558358011      0.04596407330506     -0.37662976502670
  C           1.52977704938311      0.24639516792113     -1.66582447719896
  C           2.01630908108581      1.02178722294771      0.73703680236743
  H           1.96043853426812     -0.96910621064874     -0.03378451042533
  C           1.34786428035076     -0.99639705787260     -2.53808494590268
  C           3.99449651943525      2.14333825678132     -2.76013226003696
  C           3.14843772487553      2.87109881543923     -2.03312889229102
  C           1.66515085481907      2.64136484516178     -2.00774119814701
  O           1.30686026859071      1.31908726619622     -2.40590464059651
  N           5.36439980412369      2.25545507206515     -2.71732038025459
  H           3.63687502317324      1.34111796224527     -3.39158898253057
  H           3.50406746514248      3.66784692257924     -1.39927646310890
  H           1.15800559443874      3.26822467286410     -2.75142887144254
  H           1.25002109457587      2.88682515724484     -1.02751561992179
  F           3.05492598601889      1.86492966417483      0.60896764668122
  F           0.93429325743167      1.80240503773732      0.94645472236066
  F           2.21862282852705      0.36645043343908      1.89025088575979
  F           0.10317092540933     -1.03387761215788     -3.05748449147248
  F           2.20157158918067     -0.95381811677690     -3.58577434098345
  H           1.52117646185172     -1.93689173436956     -1.99586496720637
  H           5.71795623552871      3.09204590898393     -2.27913429149182
  H           5.86353383820948      1.97635425273947     -3.54549095913140
