17
Coordinates from ORCA-job NEB E -38.614956347080
  C           0.67916460074143      0.64077377307821      0.31456067408182
  C          -0.51404624842520      0.08913518734841      0.77680672238083
  Cl          0.19574994413493      1.86057375905732     -1.34184514461034
  H           1.13650500715786      1.39279947436079      0.94315269912659
  C          -1.38581972538396      0.78025493663019      1.77487700620780
  C           1.65229772249288     -0.33383516642695     -0.34691286076992
  C           0.87218252518380     -1.25705020680976     -1.20139367974210
  C          -0.57081760433640     -1.10384924284171     -1.19884528273099
  O          -1.20773699599389     -0.79012248664513     -0.01739845182312
  H           2.41058138190603      0.19782456421507     -0.93219560124918
  H           2.18189254084943     -0.87107208277056      0.44803235843089
  H           1.32257875688981     -1.65509600102986     -2.09633199020368
  H          -1.14311140718724     -1.88221807400419     -1.70131724103700
  H          -0.58955982762058     -0.12894419712336     -1.79691805397790
  F          -2.21928461655522      1.70105914520517      1.24185527419922
  F          -2.16913533795281     -0.07559820390954      2.44417318580387
  F          -0.65144071590086      1.43536482166591      2.68970038591319
