17
Coordinates from ORCA-job NEB_product E -38.667083526350
  C           3.24361915395578     -1.06755861509768      0.43508931786605
  C           1.74924317403060     -0.91436511164407      0.53059222120177
  Cl          3.85515231064534      0.02858295785571     -0.83559970960341
  H           3.70839939068541     -0.75680857390466      1.37577207287183
  C           1.13630925618151     -1.61043949560588      1.79194551425060
  C           3.61685437986379     -2.52843283126266      0.12145263244287
  C           2.94297986056997     -3.02146911120779     -1.12440694991788
  C           2.14800998204539     -4.07271667769819     -1.16651397800172
  O           1.03147915899472     -0.35634332497501     -0.23898728898216
  H           4.70123278997598     -2.56602824495919     -0.00791961667935
  H           3.35021327374185     -3.15744993150615      0.97312155487671
  H           3.15291191817333     -2.44750939298224     -2.01580223849690
  H           1.92373744134193     -4.65466797702501     -0.28786338613251
  H           1.68957353190456     -4.39688155391154     -2.08409114824478
  F           0.03323578804777     -0.99045272925956      2.19841945378485
  F           0.81545395560317     -2.88472886977717      1.53387371447609
  F           1.98939463423892     -1.63193051703891      2.82891783428795
