18
Coordinates from ORCA-job NEB E -33.778169657410
  C           0.19496235701693      0.98943059430254     -0.01102002683025
  C           0.26525806104804      0.83782723713464      1.37548411126007
  O           1.26764818646464      0.67280481570313     -0.77469063024547
  H          -0.44211871873021      1.79143862997506     -0.37965297653633
  F          -0.77574570539501      1.50711585451276      2.00467730971437
  C          -1.00328246151477     -0.74867291022728     -0.28503624999534
  C          -1.13060047633998     -1.37666255764500      0.94175082106055
  C           0.03830219907261     -1.72214565762777      1.62061709003974
  O           0.76876905815332     -0.09748349659059      2.01273717283692
  Br         -2.56620047721041     -0.13148696367087     -1.17876500813411
  H          -0.25298297651802     -1.09597366503794     -0.98236201606836
  H          -2.03925716843146     -1.22712023446011      1.50993776938734
  H           0.89375784730513     -2.05141133677757      1.04825701193476
  H          -0.03690209077210     -2.13693269113227      2.61332910847375
  C           1.20422258750048      1.11555794736488     -2.11685040219463
  H           2.14698078795608      0.82514753227242     -2.57515251634930
  H           1.09145159756323      2.20227858896758     -2.16666940845997
  H           0.37573739283148      0.64628831293637     -2.65659115989373
