18
Coordinates from ORCA-job NEB_reactant E -33.810182536230
  C           1.10817308001633     -0.04518161072281     -0.22299453907266
  C           1.04144593557844     -0.85374938771793      0.83116073940861
  O           1.40901525851882     -0.49886914117219     -1.46768875685533
  H           0.92510075916175      1.01340824671961     -0.09074928721485
  F           0.63421065143805     -0.31513117489711      2.02104183301803
  C          -1.14653988043361     -4.32104314584584     -0.14483083384290
  C          -0.79296801532725     -3.16495908662903      0.38498216151179
  C           0.31820631864127     -3.02535513483524      1.37899789769841
  O           1.34453927777546     -2.15630000327340      0.89223715971774
  Br         -2.54780856883901     -4.47836732888917     -1.39925892215696
  H          -0.68757105606942     -5.26558048035093      0.10009656035088
  H          -1.28263317384997     -2.24555345434895      0.09410601720274
  H           0.81662585033893     -3.97965879264432      1.55668087547253
  H          -0.07557604151162     -2.63697637294945      2.32824622638711
  C           1.79095163758708      0.49788710957160     -2.38896090579249
  H           1.90794600680288     -0.00473979200046     -3.34687552051256
  H           2.74070593662630      0.96078068440679     -2.10255043093300
  H           1.02417602354558      1.27488886557883     -2.47564027438710
