18
Coordinates from ORCA-job NEB_product E -33.828952013690
  C           0.55520861457941     -1.10437637463478     -0.60375414512833
  C           1.50549118311078     -0.81976008369475      0.54195673718511
  O           1.21941939485050     -1.14160791487801     -1.83283403705656
  H          -0.24023716356144     -0.33750150157045     -0.59257367234400
  F           0.81573002782303     -0.35855401894021      1.62741404562830
  C          -0.05637182374665     -2.49590693899074     -0.37524903885772
  C          -0.78456329903568     -2.63013347181231      0.91474831900155
  C          -0.51810962738364     -3.57203597180553      1.80078094984789
  O           2.67274003465095     -0.94931076836469      0.60329695301429
  Br         -1.30794723275630     -2.81464675132979     -1.86291971248952
  H           0.72596706596654     -3.24826426972816     -0.49236663467366
  H          -1.57414942923010     -1.91018883191821      1.08214162478778
  H           0.25927219888836     -4.30141938867444      1.64149766470945
  H          -1.06625226813969     -3.64633990745315      2.72300330395517
  C           1.63579061495339      0.11559291612593     -2.31918903580293
  H           2.06398116090311     -0.07648035576330     -3.29982645409850
  H           2.39299958147357      0.56727400204728     -1.67146627706317
  H           0.78493096665385      0.79925963138531     -2.41806059061516
