15
Coordinates from ORCA-job NEB_reactant E -29.738816808960
  C           1.31704003889527      0.37096128334451     -0.04358669582099
  C           2.27831635945148      1.22104514357147      0.32465139828471
  Br         -0.03302982936754     -0.12726631886919      1.17750537239346
  H           1.25582124960053     -0.08421930289708     -1.01425238533658
  O           3.27012452173900      1.63160491572277     -0.50761324345575
  C           1.72743407354797      4.32284049632444      0.66316146544917
  C           2.89646955410243      4.06525671160650      1.21458195932626
  C           3.24768915916709      2.74695193836326      1.84244319002541
  O           2.31748994568569      1.71684091705490      1.57271817571679
  I           1.26429523146960      6.16776422137958     -0.22736531490981
  H           0.91546463203817      3.61669717974038      0.62427444467925
  H           3.68561581051512      4.80159644055101      1.24741930200394
  H           3.24439270992835      2.84293700990027      2.93319464878980
  H           4.25251115038137      2.44964137436742      1.51832518216500
  H           3.18056539284545      1.21754798983974     -1.37265749931065
