17
Coordinates from ORCA-job NEB E -28.808125671410
  C          -0.12796311562548      0.40253571312349      1.41557580470235
  C          -1.41358674129069      0.73125194943290      1.01895582984225
  Br          1.14795636352663      1.83049585478211      1.48087040282598
  H           0.02215765732206     -0.27886422439940      2.24251528122587
  I          -2.91839451918567     -0.74462708144034      1.60123618555168
  C           0.41414593405725     -0.64812533597451     -0.23314086398116
  C           0.13020088185454      0.29459176209934     -1.21351738133588
  C          -1.20843157721600      0.69521627587673     -1.43055025172934
  O          -1.67101276790218      1.44066017595927      0.01390015984015
  C           1.82655042334723     -1.07588038529290      0.03068030543665
  H          -0.31843942263761     -1.43390088632376     -0.06910658701195
  H           0.91880389790987      0.96958758705073     -1.51722928369816
  H          -1.96673026168003     -0.08268646003491     -1.45578509523970
  H          -1.38664766115042      1.49282076860510     -2.13880914827191
  H           1.92752003679119     -1.52900785827279      1.01406633049260
  H           2.51667778232067     -0.23960829081007     -0.04968931965845
  H           2.10719308955865     -1.82445956438097     -0.70997236899097
