17
Coordinates from ORCA-job NEB_reactant E -28.831813325860
  C           2.16394231414619     -0.77249569673669     -0.06379514755577
  C           1.32690119805782     -1.48196672303110     -0.80838471807756
  Br          3.43397297149994      0.50882090351616     -0.66037036705071
  H           2.16735378586650     -0.87151983292697      1.00682812420188
  I           0.02117342769103     -2.80423290251483      0.22858748190431
  C           3.63943187147981     -2.83294030837049     -2.46144588287890
  C           3.33381470851427     -1.68413489908206     -3.04137117493125
  C           1.95860124528991     -1.08464490347724     -3.09036118998435
  O           1.06738185507146     -1.59931320322406     -2.10524599188892
  C           5.01109704408236     -3.41022517183385     -2.40897468435460
  H           2.87136076742904     -3.42528085268099     -1.97860913644404
  H           4.09290025316812     -1.09081250754948     -3.53053624616979
  H           1.46714875883992     -1.33939081308761     -4.03636151023454
  H           2.01202584669020      0.00738272115983     -3.02067987267247
  H           5.32484970345874     -3.53647501653259     -1.37304042053571
  H           5.72519744892710     -2.76816264192433     -2.91772294249585
  H           5.01944679978759     -4.39410815170370     -2.87661632083174
