19
Coordinates from ORCA-job NEB E -30.150387371590
  C           0.56067496727024     -0.60833587233578     -0.88871509375263
  C          -0.63306119162782     -0.01703928004169     -1.35013262860544
  C           0.56644008227831     -1.88740733355454     -0.31453008781147
  H           1.48015977222480     -0.35232405734307     -1.40603834736773
  N          -0.52664059928291      1.01033207784309     -2.27019886898938
  C           0.72374823915360      0.41980779475408      0.98427837866867
  C          -0.53771245786140      0.09133386618629      1.49576696389490
  C          -1.68322246297271      0.59573087220633      0.90486188802430
  O          -1.74611509376724     -0.19100869006509     -0.77504362346673
  N           1.86086184273391     -0.04922140896848      1.58724193784549
  H           0.84818748206051      1.37824835736063      0.49288661431761
  H          -0.61021636810102     -0.80510572512550      2.09465366632165
  H          -1.66853740677538      1.59713683162928      0.49782678240450
  H          -2.64506482762708      0.26207296056769      1.25779510466116
  N           0.64866270021065     -2.92919174737169      0.16308392525748
  H          -1.40272800769995      1.34470858097476     -2.63927190185925
  H           0.23905902497995      0.99483439101891     -2.92252740149276
  H           1.79028071254157     -0.98196282599601      1.96957417351341
  H           2.73522359226198      0.12739120826081      1.11848851843625
