17
Coordinates from ORCA-job NEB E -29.705698914740
  C           0.76083903918723     -0.21758911952533     -0.81325347123994
  C          -0.67593230774518     -0.16392587498791     -0.74015760049950
  H           1.17193515893359     -1.22653878652568     -0.78045207365155
  H           1.14263401963474      0.30490423666353     -1.68781434737219
  C          -1.47895249014835      0.75926719861832     -1.59733303320020
  C           1.28904586164213      0.48188070699743      0.54550361633041
  C           0.69229576877133     -0.17586461662623      1.66412341585974
  C          -0.60854959866571     -0.87686808641040      1.50911790671132
  O          -1.33261503684029     -0.66277412151532      0.31679075711771
  Br          3.32741408837528      0.38968031281425      0.59876235326827
  H           1.12492404609307      1.54838870135856      0.41211881570779
  H           1.33131603617349     -0.61271618634014      2.41478256355685
  H          -1.31496748969936     -0.56498166560469      2.28808532737504
  H          -0.45406142324684     -1.95752697440959      1.64244857686272
  F          -1.13990523813841      0.61550987453906     -2.92073663140948
  H          -1.28858915807610      1.81685856720495     -1.35191435196186
  H          -2.54683127625063      0.54229583374922     -1.50007182345513
