17
Coordinates from ORCA-job NEB_reactant E -29.749317763240
  C           2.45606489362257      0.94100038218822      0.46195591651839
  C           1.48148005721313      1.69519114561860      0.94533323469467
  H           3.10375639798057      0.34408918432656      1.07607671049773
  H           2.63443209066016      0.91974308032188     -0.59618686879622
  C           0.58300519830238      2.55262183322953      0.08856317759306
  C           3.69659164201115      2.56456373998515      3.16186439464705
  C           3.12487795977170      1.45446342391083      3.58944189977006
  C           1.73284047189350      1.03023253933765      3.21909220016617
  O           1.10008287603929      1.83561886242444      2.25337793893915
  Br          5.44604287065871      3.06539441128855      3.66620493467445
  H           3.22552872336505      3.26900689465401      2.49623638912836
  H           3.63892565742209      0.78165644008239      4.26090962991167
  H           1.09402321602658      1.10129928020672      4.10749947826904
  H           1.74702285727275     -0.01998402487952      2.89428962255940
  F           0.98260229194075      2.56080325018842     -1.21705984669700
  H           0.59513024771337      3.58901482622340      0.44458363996977
  H          -0.44540745189374      2.17378473089317      0.11431754815427
