26
Coordinates from ORCA-job NEB E -48.316145018490
  C           0.78366723766642     -0.40955020167721      0.76268579641366
  C          -0.55965155723611     -0.79929140408229      0.63287592410383
  C           1.18814401631997      0.40195321282559      1.97333259358567
  H           1.53341122702308     -1.15445584167113      0.51253246514366
  C          -0.91192409178327     -2.09636325246863     -0.05431716891594
  C           0.79419950076690      0.84588679880169     -0.71064494028468
  C          -0.17350579506457      1.78323239095147     -0.33895234792020
  C          -1.51105410437216      1.30106714352613     -0.16705592404075
  O          -1.48853174718751      0.09363365420440      0.86690097788556
  C           2.20579208246177      1.33864795300404     -0.90840455587578
  H           0.55124906682993      0.13401405231782     -1.49425540029016
  H           0.13885671306775      2.65830872626360      0.21075327632317
  H          -1.94851017274659      0.81998200664695     -1.03805360104020
  H          -2.20202510736752      2.00088450982952      0.29018074485245
  F           2.54335597788096      0.58288029742573      2.00524326485854
  H           0.93254922988802     -0.15662224760770      2.88246796740825
  H           0.71940984373129      1.38915765787823      2.00855345620427
  C          -2.13811469834288     -2.00566866829034     -0.95871004203493
  H          -1.11090820712953     -2.83358865367124      0.73081172213620
  H          -0.04517807062038     -2.45282847315736     -0.61463812628664
  H          -2.96555663258959     -1.54892505194574     -0.42155985017568
  H          -2.43867187110902     -2.99975399812184     -1.27856133363117
  H          -1.92426374749532     -1.41550823240593     -1.84705105470792
  F           3.11979133208248      0.36364930442592     -0.81778389194341
  F           2.34082039640373      1.84731899368105     -2.15415589881626
  F           2.56664917892213      2.31193932331728     -0.07219405295155
