26
Coordinates from ORCA-job NEB_reactant E -48.348893270420
  C           1.57524064949613      0.08831256722220     -0.30328176545444
  C           1.30591164925980      0.35947509106304     -1.58320407891005
  C           2.06286193359536      0.99764458512158      0.78079333609695
  H           1.43865167589853     -0.93782405071438      0.00061724015483
  C           0.78647586577531     -0.71147320545873     -2.50938036824999
  C           2.49682112786721      3.00425385743891     -4.30243322471898
  C           2.84362785645311      3.27121054872187     -3.05398714676760
  C           2.32287879364664      2.53545757533744     -1.86194362564442
  O           1.42366363708494      1.52667226306376     -2.26865109549752
  C           3.03393558714591      3.75281327663333     -5.47667128429607
  H           1.79584841535635      2.22419319382929     -4.55425999995893
  H           3.54448922616399      4.06247595396332     -2.82626757614116
  H           1.82042889442013      3.26192670148774     -1.20686298088720
  H           3.17582145595414      2.11132523571375     -1.32020688751765
  F           3.44286149732110      1.16833873452563      0.73679358844642
  H           1.85157059169452      0.56476362129848      1.76232890949897
  H           1.63289614629481      2.00169413311731      0.72522189633251
  C           1.93373477979200     -1.31339917891295     -3.32215256295497
  H           0.06508214242318     -0.25252635669984     -3.18680268276116
  H           0.28559699341377     -1.49126871754828     -1.93762091650799
  H           2.44239799140610     -0.53950393222557     -3.89180438493452
  H           1.55322181719779     -2.05985828266926     -4.01445428548463
  H           2.65649604765082     -1.78690731813825     -2.66206695165746
  F           3.68422633200497      2.94295773974394     -6.33394297389477
  F           2.05510959117494      4.33741078304840     -6.19231489112815
  F           3.89514930150843      4.72563518103726     -5.14704528716203
