26
Coordinates from ORCA-job NEB_product E -48.368425878360
  C           2.16980134172437      1.06399258696878     -1.93085805252197
  C           0.84188760250627      0.50855227480969     -2.46043006696052
  C           2.02682658792100      1.12451731641731     -0.40495548359916
  H           2.99612101421451      0.38738546820327     -2.16521317711167
  C           0.83057654082746     -0.97137066247106     -2.73977825736117
  C           2.44726519054570      2.46406488514300     -2.51297743179879
  C           3.55211863188376      3.18025915123288     -1.78615408836349
  C           3.38593168894851      4.33084172051383     -1.16433908015493
  O          -0.11537550414551      1.22229821756419     -2.59950771794751
  C           2.84361935441842      2.33932855393300     -3.98034758576521
  H           1.52046924255334      3.04859449713237     -2.48228454325271
  H           4.51205965594226      2.68399565593209     -1.80137647794557
  H           2.43366639611683      4.83519608962321     -1.14187486457706
  H           4.19790633079900      4.81458376923717     -0.65145287904768
  F           3.25559963838869      1.18783820136828      0.19616111350880
  H           1.54142190683245      0.22042068127267     -0.02155140840089
  H           1.46604348449269      2.00981418627201     -0.09298546190533
  C           1.50544203731077     -1.26489714421256     -4.08355328583710
  H          -0.20587430040837     -1.30923938136868     -2.77597160725057
  H           1.35740095294393     -1.50038148717082     -1.94342669459048
  H           1.00202888798897     -0.72617644152404     -4.88159734365147
  H           1.45262507424622     -2.32985386541085     -4.29328022258680
  H           2.55126677896338     -0.96846186326020     -4.07450971354177
  F           3.92402621765811      1.55707695892943     -4.15398450857241
  F           1.88001366319158      1.80768823530360     -4.74739838986914
  F           3.14293158413564      3.52713239556143     -4.52095277089541
