21
Coordinates from ORCA-job NEB_product E -48.338484692220
  C           2.00153359809773     -1.75213414811886      0.56753125863757
  C           0.76009191489916     -1.79190902257187      1.42407200087979
  C           1.74664540913167     -0.98898796297705     -0.73569100799200
  H           2.83846902582317     -1.26548568768980      1.07620123100684
  C           0.93569460654371     -1.36410474784215      2.87169680666219
  C           2.35420264232504     -3.24312678963403      0.30821152874097
  C           3.73406731978021     -3.37370806109381     -0.26438611351637
  C           3.97206949702086     -3.74777867748332     -1.50677404446540
  O          -0.32576699793080     -2.08869928582225      1.02211707860994
  O           2.23003518860371     -3.86978062094006      1.57163394198563
  H           1.60504729192402     -3.65373529977828     -0.38545523023813
  H           4.53297281643698     -3.13913332225261      0.42601059810888
  H           3.17301221825559     -3.97290785416170     -2.19382693136917
  H           4.97410890029934     -3.82676579226056     -1.88958138468275
  F           2.92615997344901     -0.68793248577235     -1.32516383570198
  F           1.05211594530221     -1.71822250347202     -1.62841319609888
  H           1.20385558701437     -0.04393421546115     -0.57251503264760
  Br          0.98363486186581      0.60075749388658      2.69361549408575
  Br         -0.59817780769283     -1.87837493828556      3.90659983372887
  Br          2.54116609632449     -1.93506218927005      3.74454946693557
  H           2.58456191252655     -4.76467388899909      1.52306753733029
