20
Coordinates from ORCA-job NEB E -29.313530510080
  C           0.23816163125368     -0.32099051900330     -0.99351767228738
  C          -0.93265695899308      0.27168814983963     -0.49251684439356
  C           0.37785547621974     -1.82387211759347     -0.97453711224713
  H           0.65892596646502      0.13310773474318     -1.88698118247993
  C          -1.32690335081180      1.66053563664236     -0.91137530420863
  C           1.42223218366996      0.23452642963962      0.39455048597173
  C           0.85422236307225     -0.27421190662415      1.56267865850243
  C          -0.46420064718736      0.16954848083004      1.87987557087380
  O          -1.41239715182301     -0.18874746290805      0.63693458137125
  F           2.62110533598976     -0.26695316144665      0.01505853919932
  H           1.41160389721359      1.30576966960223      0.19968741613061
  H           1.16988765866169     -1.25494755358109      1.88304628715889
  H          -0.59941116213070      1.24882376888831      1.93462767652167
  H          -0.94516266952324     -0.34023442403987      2.70617808620966
  H          -0.14581590730484     -2.24180249916444     -0.11888040022931
  H           1.42210074399939     -2.12470446041276     -0.94499062919463
  H          -0.06586740166804     -2.22752900492959     -1.88402355379764
  H          -0.83632002085123      2.39727365839970     -0.26767894466070
  H          -2.40069240882137      1.78798501019860     -0.79623778915655
  H          -1.04666757743042      1.85473457091969     -1.94189786928391
