17
Coordinates from ORCA-job NEB_reactant E -34.438643146060
  C           1.76126679248865     -0.21892063522449     -0.22955808765238
  C           1.45464370739864     -1.46767533925953     -0.57110981498402
  Cl          2.32904625984745      1.06560709195231     -1.23939201259506
  H           1.65519605764283      0.08529019360198      0.79828612169761
  C           0.95355297382257     -2.43090017247748      0.48663179868392
  C           4.37960160556647     -2.37312342858951     -3.52997761021749
  C           3.60989021198957     -1.61957954275939     -2.76937171933203
  C           2.11849904258248     -1.59180283706456     -2.90036998316863
  O           1.47068278927391     -2.13135743201715     -1.75410543178129
  F           5.71243157938412     -2.38337405697369     -3.39657612898916
  H           4.04803881356992     -3.02710078443887     -4.32417042102726
  H           4.04822147258259     -1.00263686084395     -1.99939415744238
  H           1.79584841659313     -2.24338502579544     -3.71623284984929
  H           1.77226097926386     -0.57241368820090     -3.09461447097452
  F           0.71426781508549     -1.81816004417559      1.68154083684658
  H           1.69837231876343     -3.21510525772141      0.66466144271133
  H           0.01487916414490     -2.88636218001232      0.15345248807407
