25
Coordinates from ORCA-job R E -42.902194792170
  C          -1.25571270448944     -0.34645228470269     -2.65454662020588
  C          -0.35932371442528     -3.15780815300152     -2.04385547718701
  C          -1.61496847336075     -2.75223410228359     -2.21281277520651
  C          -2.03801704719283     -1.37148278449019     -2.29456669328645
  C          -1.15647321563648      1.70748259680120      0.49722409601992
  C          -0.28866013020018      0.76523177460258      0.18407116281870
  H          -2.41097057479079     -3.48544726511266     -2.26175780938276
  H          -3.07287660911635     -1.17345610689871     -2.04621760084957
  C          -1.70082742911490      1.04919735236843     -2.66514945644362
  H          -0.11232716405345     -4.20427809382860     -1.99112211270156
  H          -0.22433646825543     -0.49267737428898     -2.93528320765236
  H           0.45686412285432     -2.46495669854721     -1.92793188032066
  H          -2.08114539476263      1.47817553074327      0.99890180877073
  H          -0.45069815483946     -0.27718733515858      0.41729623029333
  H          -0.97165274728831      2.74270895465434      0.26293407253905
  C           1.02164855082634      1.07288567656338     -0.47894314391672
  O          -0.95514445054687      1.99366637836120     -2.80307524216727
  O          -3.02529795407956      1.19181484369031     -2.49040143059207
  C          -3.50583233065324      2.52667275648714     -2.46462597510902
  H          -4.58982075313969      2.45532568637936     -2.42993806436361
  H          -3.18136946731510      3.06482084954498     -3.35776041203963
  H          -3.12371544597142      3.05001953180759     -1.58549302756878
  F           1.97191297456393      1.36498894198161      0.45811441132955
  F           1.49121322052193     -0.01457360854199     -1.14208844471724
  H           0.97316136046566      1.91233293286930     -1.18720240806053
