32
Coordinates from ORCA-job R E -46.171781544280
  C          -0.73162982444704     -0.29421132467098     -2.81408534373262
  C           1.06378043115945     -2.73722858239837     -2.81765596647414
  C          -0.02708701219275     -2.55539072193127     -2.07682418171842
  C          -0.94895462703757     -1.44109640880567     -2.15462480746719
  C          -1.25107158418575      3.34033366135439     -0.28003213505977
  C          -1.44937737329881      2.13493849330239      0.23189346889314
  H          -0.27896126781674     -3.29872663458594     -1.33174644736558
  H          -1.86552376995395     -1.56720021984636     -1.59554395882899
  C          -1.61877671846766      0.85118539632308     -2.85936484650277
  H           1.70071001361728     -3.59461065425957     -2.68187199279298
  H           0.20478951582083     -0.16035747367266     -3.33851662866583
  H           1.36222136677273     -2.04653228728125     -3.58814622703300
  H          -2.00782334938729      4.10546836586500     -0.23229032468512
  H          -2.37216336500404      1.85935382591952      0.72183364762216
  H          -0.32466626882342      3.59505011258179     -0.76528927240246
  C          -0.44220168378763      1.05391738352833      0.21328214980556
  C          -2.92058285217646      0.83256943094796     -2.35149264444941
  C          -3.71727014310546      1.95871967321770     -2.40487575873510
  C          -3.23495801061381      3.13370062820412     -2.95777822647237
  C          -1.94734222207148      3.17016745507411     -3.46723288748710
  C          -1.15315081183327      2.04197482509506     -3.42456566840842
  H          -3.31792182067494     -0.07197745889803     -1.91900448738098
  H          -4.72282956308137      1.92126267808631     -2.01132165338845
  H          -3.85952068693906      4.01411252488156     -2.99666539411880
  H          -1.56575256806338      4.08166824104715     -3.90466464035245
  H          -0.14977896960054      2.07667707368919     -3.82562270669940
  O          -0.63078315379439     -0.04449024129924      0.67977049655476
  O           0.71495560666602      1.42020564597384     -0.35648163803629
  C           1.73764524981174      0.43544194267721     -0.36695074535978
  H           2.57505113573540      0.87563605208487     -0.90236033560126
  H           1.39066580432519     -0.47057869613501     -0.86747137603594
  H           2.02879852244817      0.18228729393079      0.65484053237900
