32
Coordinates from ORCA-job TS E -46.160748329350
  C          -0.48592139848465     -0.49530440488511     -0.76045042413659
  C           1.08232775823143     -2.64032906113901      0.37674482507184
  C          -0.19211259762410     -2.80777254249859     -0.04866547277266
  C          -0.95615943647197     -1.77555837554307     -0.63357859759523
  C          -0.26581292380424     -0.02775032817132      1.41322580076361
  C           0.52962481268192     -0.95508578940526      2.01422113266271
  H          -0.71530514857770     -3.71899008416635      0.20990857790912
  H          -1.99953995788445     -1.98186403673692     -0.82603169244268
  C          -1.28209206746877      0.62243237817147     -1.25508836719661
  H           1.58378040182133     -3.41150636331667      0.93669830746079
  H           0.58215934025111     -0.34164444133160     -0.81384100827175
  H           1.71434082818772     -1.86923731615625     -0.02406205040833
  H          -1.33212339974965     -0.06005964494056      1.55610841211332
  H           0.10811048016197     -1.76319698124558      2.59109928240405
  H           0.15031404685309      0.91576943264726      1.10682344030765
  C           1.97224360801515     -0.76991107629654      2.19126944920594
  C          -2.67228346601051      0.66357329246610     -1.13934922293521
  C          -3.38891437077695      1.74435652974350     -1.61556832456588
  C          -2.73451195705071      2.80972049778154     -2.21222302201836
  C          -1.35383884517943      2.78985349113060     -2.32266158773041
  C          -0.63601781256189      1.71155734941102     -1.84322566388570
  H          -3.19625272077491     -0.15103777742696     -0.66211428453264
  H          -4.46479910727485      1.75949655262183     -1.51793217782743
  H          -3.29719445163097      3.65337176138224     -2.58330090887919
  H          -0.83653657241753      3.62026587283513     -2.78083129590725
  H           0.44148148426579      1.70173947512386     -1.93028200789938
  O           2.65643422436965     -1.38785875675695      2.97183366274357
  O           2.47856921510940      0.19232370033349      1.38539207654393
  C           3.86617038816395      0.44216404285097      1.53036776190987
  H           4.11153474553960      1.22695703172337      0.81881573926223
  H           4.44145269046049     -0.46203273925750      1.31777436710822
  H           4.09087220963070      0.76555831105183      2.54892327353842
