24
Coordinates from ORCA-job NEB_product E -48.680764771970
  C           2.78345204673112      1.19458282197533     -0.22634916888521
  C           1.51211967946350      0.89411631396716     -1.01025043282483
  O           2.58037806880476      1.02853713330805      1.14544318753838
  H           3.60280317258304      0.54785636841005     -0.58234892137347
  C           1.71593334143263      0.15133718926070     -2.35122178497623
  C           3.13271007506233      2.68465889636560     -0.50142459305775
  C           2.14084886275448      3.57160275292115      0.19288201062971
  C           1.29241532326033      4.35428807891696     -0.44446950220537
  O           0.41000803909803      1.16284277555927     -0.63941681245620
  C           4.56578988130034      2.99454030719513     -0.05437996704489
  H           3.09737125810619      2.85536527122011     -1.58171819611459
  H           2.16244275382482      3.51191348851829      1.26990807049685
  H           1.26013840147524      4.40689801398423     -1.52133980945854
  H           0.59101388752385      4.97538738430767      0.08388905841626
  C           2.46577295502997     -0.31228413827013      1.55572440789237
  H           3.34270336330209     -0.89621040293181      1.25101117406893
  H           1.56393298437330     -0.78478083506372      1.15145148386766
  H           2.40573374760279     -0.28641050563091      2.64109809606047
  Cl          3.09310050982708      0.75959338783951     -3.27966226001040
  Cl          2.03442194677015     -1.54273330823094     -1.88629050668411
  Cl          0.25667174419826      0.23181005096962     -3.34150318089458
  F           4.74426939974959      2.80346189992758      1.28556950350464
  H           4.79707060322448      4.04591552713972     -0.25771525508654
  H           5.28519795450161      2.34571152834139     -0.56708660140255
