18
Coordinates from ORCA-job NEB_reactant E -38.149170899520
  C           1.71412745173747      0.02627643781268      0.07862970802917
  C           1.08764964144994     -1.16680329469522      0.10005221665107
  C           2.03682448256756      0.71553803618115     -1.18268556545408
  H           2.00095366110070      0.51201110392417      0.99433657528422
  O           0.78006254231784     -1.81675779208952      1.24162326269905
  C          -0.13310507525899     -4.71085600253816     -2.75981917517517
  C          -0.25685811611591     -3.47079175411359     -2.32906237331995
  C           0.06467417624652     -3.03049094546981     -0.93581187702150
  O           0.73396606732194     -1.77294313803106     -1.02425724305136
  H          -0.39471937254464     -4.98826431823992     -3.76567036125863
  H           0.22437352408844     -5.50226156720680     -2.12157889822177
  H          -0.60790397079407     -2.67918760915698     -2.97481775744976
  H           0.70106018773614     -3.75936326210381     -0.42214938063802
  H          -0.85965135649371     -2.90642562644597     -0.35434904756419
  Cl          0.56663476149323      1.05771593311067     -2.15185498966004
  Cl          2.84479132040525      2.25450108689869     -0.85869224511792
  Cl          3.11768299568391     -0.26858313362571     -2.22564202839958
  H           1.07163707905839     -1.30981415421084      2.00824917966846
