18
Coordinates from ORCA-job NEB_product E -38.166384546800
  C           1.64567702303394     -1.29494813363206     -0.80450271903240
  C           0.65612476786962     -1.03364706454544      0.34523479930338
  C           1.54759077276446     -0.20998771747090     -1.87274003367177
  H           2.66526094540872     -1.22477487384457     -0.40263036188607
  O           0.93274369203157     -1.72593860381236      1.45738365004151
  C           1.43858308197399     -2.73033447908572     -1.34775147587237
  C           0.02686024003746     -3.01717174955266     -1.77767364932368
  C          -0.91774738112457     -3.42903982711679     -0.95315948147295
  O          -0.28074384333743     -0.30175703658311      0.28873934118004
  H           2.12165232000311     -2.87921320268290     -2.18450958931136
  H           1.71770373084288     -3.43102189890334     -0.55589452644502
  H          -0.18829565427833     -2.87414176473245     -2.82568606790331
  H          -0.73983263821080     -3.58526103798883      0.09868346798585
  H          -1.91930964380594     -3.62131614392426     -1.29476343023521
  Cl         -0.04513937324782     -0.09268611008196     -2.62097188790517
  Cl          1.93971229531291      1.36616054554090     -1.12628643530723
  Cl          2.75503597614027     -0.50991327654248     -3.15039412421916
  H           1.72202368858596     -2.27910762504106      1.38422252407493
