23
Coordinates from ORCA-job NEB_product E -49.705229973590
  C           2.79980373675941     -1.85955385645177      0.18980577099366
  C           1.48715853556555     -2.31450638928208      0.78390956504379
  C           2.51201523061609     -0.61725509093119     -0.66600411013837
  H           3.51439962809126     -1.58813442653902      0.97276171504035
  C           1.26451245960380     -2.09371002692921      2.28445484726471
  C           3.43466850302800     -2.94780500602867     -0.71403041531852
  C           2.47614829577049     -3.48759136810363     -1.73988121482762
  C           2.52503300771115     -3.15351972662991     -3.01581649231023
  O           0.55898870043898     -2.71117272381190      0.13771552419124
  C           4.03982024591724     -4.09906345277378      0.08077788320692
  H           4.26973005954198     -2.46415176590212     -1.23910900468705
  H           1.72315619910019     -4.17522835648330     -1.38166955439405
  H           1.82371351522402     -3.55521677820633     -3.72500262698556
  H           3.26296957575245     -2.46978326978626     -3.40329233615932
  H           1.76748909355521     -0.84967820677863     -1.42384920478625
  H           3.42639149422438     -0.28995556080148     -1.15463529161904
  H           2.14408723144799      0.19971448420886     -0.05135427138236
  Br          0.70358853697992     -0.21434828148245      2.39761161921312
  Br         -0.19235857208328     -3.21902531689888      2.88253084495316
  Br          2.78763624951603     -2.33104225353251      3.44777118053702
  Br          4.79306922698699     -5.41782173024250     -1.15412527119919
  Br          5.50830492926632     -3.48280979393689      1.22630402393665
  Br          2.72537411698584     -5.01364110267633      1.19342681942694
