23
Coordinates from ORCA-job NEB_reactant E -49.696201941290
  C           1.95989219324160     -0.25801839604754      0.14336189066418
  C           1.41766662540012     -1.46535684564021      0.28637298569471
  C           2.14555026599559      0.44818363223792     -1.15259828685015
  H           2.28460984355337      0.27517124094750      1.02595140788183
  C           1.21303186152577     -2.07832772033349      1.64810773528476
  C           3.98675954646308     -4.01222081203383     -0.75063553297646
  C           2.66729831572584     -3.95911045603470     -0.84220499784049
  C           1.94066886532057     -2.86777761278519     -1.56599348167979
  O           0.95922487141040     -2.24601802774560     -0.74378959187869
  C           4.76941370617895     -5.05601925581865     -0.05359782014213
  H           4.60832764674302     -3.26595102897627     -1.23209564869557
  H           2.03358431560600     -4.69845517800538     -0.37037889158774
  H           1.36329165952947     -3.29649729638502     -2.39073606114719
  H           2.64814040376254     -2.12928576134310     -1.95845130658295
  H           1.57192490515581     -0.02271826867412     -1.94683565511901
  H           3.20105564703047      0.46552725129976     -1.42712020842749
  H           1.82031839766276      1.48134381871957     -1.04611714872074
  Br          0.49364492530016     -0.80522267136009      2.93980425236083
  Br          0.00349221173223     -3.58606863446286      1.55346655249195
  Br          2.93795830000677     -2.72242623421528      2.36786917833702
  Br          5.74549017692122     -6.11943444914184     -1.40576878388261
  Br          6.10741311600528     -4.20457640319212      1.11269495102197
  Br          3.72354219972900     -6.27804089100949      1.02379446179374
