21
Coordinates from ORCA-job NEB_product E -39.917076136460
  C           1.64265085181852     -0.80734794870623      2.29926821965468
  C           2.64669804128749     -1.97898612299800      2.35111209402396
  C           1.48334016561768     -0.19846310684983      0.92027935157357
  H           2.11086424551836     -0.02671568826916      2.91518671841799
  O           2.50995134942900     -2.96227759131597      1.46698795146485
  C           0.29759153547324     -1.19118132843090      2.97727089537873
  C          -0.08947868123329     -2.62891933164497      2.76942312856516
  C          -1.19054875735854     -3.01897455888281      2.15449366491850
  O           3.50860053561554     -1.99543728188390      3.17821077738497
  C           0.40855762418713     -0.92554375435721      4.48138733181576
  H          -0.49268894419732     -0.55066742438708      2.56749039269548
  H           0.57277158154304     -3.35521453276085      3.22261031292513
  H          -1.87920500626263     -2.31663302658122      1.71376703757441
  H          -1.45000809976854     -4.05910348521997      2.06458388592136
  Br          0.56931560158679      1.53690877340551      1.05728273802946
  Br          3.24839208102531      0.11785925743492      0.10257432963037
  Br          0.43072235387972     -1.28028282976861     -0.33344713127134
  H           1.72609005492549     -2.90845592248961      0.89707871069513
  H           0.55249492955137      0.13481009698649      4.67588564234211
  H           1.24723368743899     -1.47637737103706      4.90140664745088
  H          -0.50324515007737     -1.24589682224355      4.97904730080882
