21
Coordinates from ORCA-job NEB_reactant E -39.906140784080
  C           1.37832948618544      0.05427899821337      0.25940222282183
  C           0.84936248668588     -0.99146650549041      0.94341229809875
  C           2.51574621654401     -0.04031509113567     -0.63332096554121
  H           0.91582857920266      1.01674672356624      0.39404595003505
  O           1.28704864823958     -2.25412578541005      0.89448256363759
  C          -0.21297129330299     -1.89873197061748      4.94895532601912
  C           0.14730221689643     -2.13381950940061      3.69814279117984
  C          -0.72083086388994     -1.83999493816618      2.51264879930927
  O          -0.19922154176845     -0.76242433118043      1.72003877704685
  C           0.63416920206994     -2.18299953926523      6.14031591167373
  H          -1.19046611836525     -1.48291926558137      5.15887895014758
  H           1.12171569312625     -2.54402874657324      3.47258405936482
  H          -1.70361482629923     -1.48391767016754      2.82600716110724
  H          -0.82976797533909     -2.73121298292851      1.88481522029638
  Br          2.98412807588176      1.66183520526276     -1.41300857390641
  Br          4.17912067425430     -0.75679794579411      0.28293990817649
  Br          2.20609996493987     -1.33852794829825     -2.17425160829081
  H           2.02458431560947     -2.37370892828031      0.27993737312455
  H           1.59754706833511     -2.59280034673046      5.84941822320707
  H           0.13050960430253     -2.89285051639970      6.79564875286688
  H           0.79488038669171     -1.26861890562281      6.71010685962538
