19
Coordinates from ORCA-job NEB E -48.346097533650
  C           0.95212324495999      0.36414041086997      0.21998663208384
  C           0.20317343322293     -0.40651036042418      1.12337866624162
  C           0.78841126620877      1.87097890276425      0.30360194722856
  H           2.00471042461864      0.09449375735733      0.13185668479998
  N           0.72372995964322     -1.72736425809907      1.44218026192841
  C           0.13288975449628     -0.20477918722973     -1.42416799312436
  C          -1.22099652497710      0.00242440859271     -1.17470945328262
  C          -1.83651257454524     -0.68346476108732     -0.05538190149542
  O          -1.09118287097022     -0.26333031517565      1.21271288713697
  I           1.01831594233255      0.78991640481396     -3.08045787212811
  H           0.53147001303816     -1.21094420215322     -1.37021293043877
  H          -1.71046998114125      0.88111722139129     -1.56725644859318
  H          -1.73201399599347     -1.77160808155636     -0.05947659033871
  H          -2.86453281494249     -0.38920967641548      0.13471953096112
  F           1.00171852045368      2.27409919656784      1.56315302734154
  F           1.68125153134363      2.51303499039995     -0.45231034872384
  F          -0.41673780120340      2.32691440600235     -0.04354412016141
  O           1.91978113353640     -1.89800211032677      1.31504612470839
  O          -0.08512866008109     -2.56190674629186      1.78088189585598
