18
Coordinates from ORCA-job NEB_reactant E -38.699017627890
  C           1.80683724487335      0.00313105555771      0.03750263881465
  C           1.14338746341023     -0.55135119319555      1.06671720166569
  C           2.11342078431594     -0.76552266993893     -1.19910120770014
  H           2.13984056115577      1.02375535451184      0.08461302150701
  O           0.84483408631629      0.11651232348376      2.20495353696014
  C          -0.13059842857249     -4.75128699879241      2.61782644426699
  C          -0.36886338530190     -3.73352001349436      1.81422359892191
  C           0.01643412138569     -2.32850982189233      2.13878444654687
  O           0.73210859482372     -1.81433924373505      1.02177385333010
  F          -0.51164224546198     -5.99740015845804      2.31072617272409
  H           0.35290599884387     -4.70442063582032      3.58361430156987
  H          -0.84701298194664     -3.88678436058935      0.85897741107503
  H           0.63905945625110     -2.28411621767562      3.03955862514723
  H          -0.88261247200705     -1.71898205698841      2.30502775104847
  F           2.89156589070257     -1.85708874450204     -0.95109542546712
  F           0.99019327237202     -1.25673540423915     -1.79424363147595
  H           2.63940056437051     -0.15654705033889     -1.94994421265638
  H           1.17644147446900      1.02030583610713      2.16148547372155
