21
Coordinates from ORCA-job P E -43.673568166240
  C          -1.27160589428072      0.29287957865795     -2.43849193769711
  C          -0.28475943370213     -1.70156451454217     -0.82051552336264
  C          -1.63930974739021     -1.86945810238259     -1.43259517045259
  C          -2.11171505384893     -0.92897789430897     -2.23262356595781
  C          -0.81732770723965      0.80623455095402     -1.06164886828793
  C          -0.07886540775277     -0.27817942096600     -0.25430296400264
  H          -2.18543331522026     -2.77505654265300     -1.22767922498650
  H          -3.07915659741399     -0.97384716500820     -2.70430384251576
  N          -2.04420720398697      1.37786301806865     -3.08413027218821
  H          -0.12469084211870     -2.43378369503152     -0.03140702177968
  H          -0.40073309623861      0.09446599313389     -3.07278417804476
  H           0.46591346074348     -1.87869477949326     -1.59622982681758
  H          -1.71219476557074      1.11193678575453     -0.51635009749412
  H          -0.45911824987562     -0.26302910922798      0.77098968488096
  H          -0.18001292574170      1.68213160539952     -1.18762874665958
  C           1.41423635233528      0.03795306935038     -0.15683121427266
  O          -1.48336996894380      2.01751156789509     -3.93888318579270
  O          -3.16996976962176      1.56142991490181     -2.69231665318353
  Cl          1.67229115679071      1.58570178100567      0.69325532967993
  Cl          2.27011915447911     -1.22370984819550      0.75978282144283
  Cl          2.16041985459797      0.16025320668767     -1.76725554250792
