21
Coordinates from ORCA-job R E -43.585760849620
  C          -1.29270377941822     -0.39636729176470     -2.77082647321505
  C          -0.23521144446261     -3.21600613374597     -2.87637268070291
  C          -1.40406118199392     -2.83745143154537     -2.36224500987831
  C          -1.81403261861059     -1.46828773178400     -2.15779582886245
  C          -0.70873763951327      2.55793443522887      0.14925264263013
  C          -0.36706228693790      1.38784564301150      0.65356624216499
  H          -2.12516511271016     -3.57871374055968     -2.04707061193344
  H          -2.61929700789026     -1.28680876005189     -1.45475984851974
  N          -1.73997694469406      0.91185768480098     -2.45988812261244
  H           0.00510744923572     -4.26130121129235     -2.98206318647429
  H          -0.52396612483578     -0.42622964511366     -3.52460762682093
  H           0.52247509962737     -2.51193394116739     -3.17032007651646
  H          -1.59225188291410      3.06902007270067      0.48850997225217
  H          -0.93809868216522      0.91430890839827      1.43962834942615
  H          -0.14853489694383      3.03199362794489     -0.63903301105305
  C           0.85910958117909      0.62419104951817      0.27357297607042
  O          -1.20780610125019      1.83282190712029     -3.04970416792672
  O          -2.60265252062527      1.04574793183512     -1.61301902738946
  Cl          1.60627391325159      1.16131425637375     -1.23302659907007
  Cl          2.06899074307700      0.76932018321219      1.59261132562469
  Cl          0.44849143859462     -1.10555581311970      0.09168076280674
