21
Coordinates from ORCA-job NEB_product E -37.661059279750
  C           2.13496577958618     -1.18566908320308     -1.72849336362797
  C           0.97323894534555     -2.14094216020407     -1.46002190450568
  C           1.72962030458646      0.21604242065125     -1.26828599228548
  H           3.01848745975290     -1.49096761664229     -1.15588533649570
  O           1.30961557671065     -3.39642990087519     -1.15027864818643
  C           2.48653806154919     -1.20227906866951     -3.23654763263375
  C           3.66857644754201     -0.31353301688781     -3.50433834726301
  C           3.64171013097736      0.71832349309096     -4.32435745436493
  O          -0.17370055647445     -1.80416541650730     -1.53218087555121
  C           2.78720136519545     -2.62809077075831     -3.71713678675028
  H           1.61974665960512     -0.84644421221947     -3.80263085090723
  H           4.57412762563516     -0.58245336521155     -2.97866890948480
  H           2.74590360789899      1.00350121792353     -4.85176349093279
  H           4.51146528699039      1.32748324760206     -4.49565410337777
  F           2.83336303898841      1.01762726506923     -1.13534889921899
  H           1.24838898495417      0.17533636017601     -0.28614886317881
  H           1.06033592086773      0.69683980413185     -1.98615566385316
  H           2.26433656730155     -3.56195155937204     -1.18020583080146
  F           3.64877272906370     -3.26281740909239     -2.84602141313623
  H           3.27826033721144     -2.61384050239045     -4.69377711779428
  H           1.88304572671205     -3.24296972661143     -3.76289851565004
