21
Coordinates from ORCA-job NEB_reactant E -37.636118627080
  C           1.68355816732875     -0.12009768243481     -0.11549654951363
  C           2.61784477395294     -0.40093233245658     -1.03049029115979
  C           0.57238710019249      0.84074313028909     -0.35543683680296
  H           1.76055912090376     -0.54747824513503      0.87145972177120
  O           3.64629255660383     -1.26060321472368     -0.80420306715552
  C           2.86402952880505     -1.89442728472796     -5.05037032575171
  C           3.13051494043463     -1.66163628141795     -3.77698600927001
  C           3.51232430624360     -0.31869159335909     -3.23338679647937
  O           2.58496248891752      0.14605504225103     -2.25771812413653
  C           2.48614435588605     -3.22893436526942     -5.60763383765459
  H           2.91620467739024     -1.10925686397341     -5.79201393045393
  H           3.06877253226149     -2.45926202871386     -3.05035538367637
  H           3.48768956239377      0.44147236133289     -4.01723790891498
  H           4.51797710572539     -0.36592113238937     -2.79847725660976
  F           0.76801903764137      2.01524512557568      0.35811058567574
  H          -0.38887156367614      0.44573406308408     -0.00849211539441
  H           0.51852074400326      1.12364077906055     -1.40886850401271
  H           3.61987055357767     -1.56740247299278      0.10825259261890
  F           2.43736047373103     -4.20023352821706     -4.64151586602081
  H           3.21722113260171     -3.56217630262444     -6.35544282241846
  H           1.49131840508156     -3.19073717315789     -6.06959727464032
