25
Coordinates from ORCA-job NEB_reactant E -47.174883329850
  C           1.28258109351314      0.12008579728846     -0.01438409318596
  C           1.14258237415449     -0.81548860920514     -0.97997600349943
  N           1.98451421922565      1.35140882033080     -0.08446991006901
  H           0.82397466440338     -0.03648775222355      0.94960585053456
  C           0.17759067626867     -1.97201367886543     -0.70397062675881
  C           3.78734646192281     -0.38445336658284     -4.85700394152573
  C           3.47687200866902     -0.99339118676464     -3.72468751530165
  C           2.91302648822845     -0.29013230572276     -2.53087570279468
  O           1.73138338150947     -0.99099352817814     -2.14055903535472
  C           4.38017573258346     -1.05891877662640     -6.04928277876829
  H           3.64343200088610      0.68450645070809     -4.95029000542124
  H           3.60779635190538     -2.05990517459676     -3.60819605709602
  H           2.68226471274518      0.75707574259011     -2.75779951274275
  H           3.62569243795246     -0.31463929049998     -1.69357532096745
  O           2.43593856519060      1.78121217389120      0.95675316417373
  O           2.04743434394020      1.92689623799214     -1.15583082578691
  F          -0.77178353218103     -2.02455452409830     -1.65923157929298
  F           0.84050556678593     -3.14805433033544     -0.74570368537514
  H          -0.32167610433274     -1.89310762278395      0.27292958390177
  C           5.74484561884595     -0.46245485070606     -6.39432865728154
  H           3.70826959301055     -0.92173885736694     -6.90086717250163
  H           4.47912622008853     -2.12911795112020     -5.86232666014162
  H           5.65609040563623      0.60202834824389     -6.59825681506293
  H           6.15875802477598     -0.94906581501525     -7.27381267570051
  H           6.43645869427213     -0.59729595035292     -5.56606002398105
