25
Coordinates from ORCA-job NEB_product E -47.179195887370
  C           2.98140675023082     -0.48412668497053     -2.03169153270910
  C           1.80780643473454     -1.41910337407574     -1.87865828538693
  N           2.77293443040303      0.72992893789968     -1.17568688980421
  H           3.91039421046095     -0.94988757583623     -1.69069199344958
  C           2.17862728944610     -2.75844768924424     -1.19077157739882
  C           3.16806875534348      0.04828638046089     -3.48400871090729
  C           1.96342656358767      0.81570845126571     -3.94332446499653
  C           1.96500610078777      2.12266237292999     -4.13094124817344
  O           0.67936330887774     -1.19094886304909     -2.20039917890983
  C           3.47672046064227     -1.10251589315889     -4.45379069007537
  H           4.03371614208187      0.72137910289493     -3.45519053433265
  H           1.07277863339552      0.23303788173194     -4.12350665477235
  H           1.08895247180595      2.64517740117032     -4.47096102218284
  H           2.84111994615767      2.72584262144992     -3.95228843920837
  O           3.74923274014203      1.12081266217410     -0.59108764387266
  O           1.68391761241069      1.23022472970943     -1.16821724407079
  F           3.05979072783147     -3.44433386664435     -1.95539645877677
  F           2.80236461954732     -2.50692333320841     -0.01771845880905
  H           1.29917380051846     -3.39010499896794     -1.00431371007389
  C           4.84663926127734     -1.73265356018936     -4.23252421261464
  H           3.43841296835035     -0.68801658248313     -5.46344099127502
  H           2.69926506991935     -1.86566209246737     -4.38071299753250
  H           5.62317995082500     -0.97100352747414     -4.23700142228036
  H           5.05763265331042     -2.43822496684877     -5.03153402747871
  H           4.89466909791218     -2.27660753306874     -3.29384161090832
