21
Coordinates from ORCA-job P E -28.735050925150
  C          -1.36326324632744      0.34687193898894     -2.40892919945269
  C          -0.08413079318190     -1.69301461749739     -1.09092734496908
  C          -1.46119010477304     -1.94386050894748     -1.61494805687178
  C          -2.08086827040348     -0.95915056933922     -2.24472530736596
  C          -0.77067778391007      0.77422505867157     -1.05199594888094
  C          -0.05381533950100     -0.36680861054110     -0.30769885146459
  H          -1.91343264097616     -2.91060402079594     -1.46092941101960
  H          -3.08101454702969     -1.03914777701444     -2.63820313504965
  N          -2.27690030747278      1.38212301853979     -2.86416940104369
  H           0.25409212593189     -2.50336176296745     -0.44595405154929
  H          -0.51964930126633      0.18621512208300     -3.11343865834043
  H           0.61405403680681     -1.61927671509341     -1.93201188768990
  H          -1.60214642248505      1.14687818651793     -0.45388061549636
  H          -0.55665762698582     -0.54120429324525      0.64838591056413
  H          -0.08275880219462      1.60673978866083     -1.21632259958745
  C           1.38834759819243      0.02738290889632      0.00047054569827
  H          -2.69191157892592      1.12259322029527     -3.75219661987968
  H          -1.78648801590885      2.26056339244213     -2.99232277571875
  F           2.00332183743449     -0.93639453994248      0.76429555335982
  H           1.43455159879870      0.95603299261962      0.57921235625634
  H           1.98253758417784      0.12636778766876     -0.91469050149870
