21
Coordinates from ORCA-job R E -28.655492240100
  C          -1.19818979820519     -0.05724761984506     -2.93867536370953
  C           0.22324007664287     -2.68160801635871     -2.39296658528968
  C          -0.97741670122390     -2.31817584951552     -1.94461692998600
  C          -1.65557320899398     -1.06581153566418     -2.18290952006284
  C          -0.88858041121312      1.80390419002086      0.06084898147621
  C          -0.44811827219480      0.64153392501641      0.50113346891998
  H          -1.52869148974431     -3.01632321403423     -1.32685155054581
  H          -2.61550259294440     -0.94533495977585     -1.69723113793176
  N          -1.81917834633541      1.16280789685447     -3.06528648105894
  H           0.64134803459343     -3.64448017534520     -2.15657130907577
  H          -0.24963575974731     -0.12296177858803     -3.45084834860505
  H           0.83090998853198     -2.04248481731173     -3.01080356789713
  H          -1.87151383626659      2.16719321618452      0.30496890303848
  H          -1.05134436961262      0.01484293538982      1.14267245897678
  H          -0.28997257799086      2.43363660272583     -0.57562491461182
  C           0.89388137752308      0.07864942732633      0.16823682123512
  H          -2.77758521509758      1.19983677782145     -2.75340551627507
  H          -1.63522618267602      1.68674906681152     -3.90491469031902
  F           1.49709915647283     -0.43997430805402      1.29587378088221
  H           1.57067634280533      0.83898951241740     -0.23327647143763
  H           0.79919378567657     -0.75545127607610     -0.53925202772271
