21
Coordinates from ORCA-job TS E -28.640704944750
  C          -0.81587459277027      0.40150001847454     -1.45700462693352
  C           0.55340484342065     -1.66212840273189      0.01939155771261
  C          -0.76819214862554     -1.73915796948805     -0.30154613374783
  C          -1.43881316467944     -0.73325113132289     -1.01665142795471
  C          -0.19824064570023      1.10137632656180      0.71862872603188
  C           0.53170510677369      0.13134630051522      1.33400962106450
  H          -1.38053949928668     -2.49303570857919      0.17503712510995
  H          -2.51909388790538     -0.77472559536372     -1.06620166253431
  N          -1.49762358772994      1.41955529071843     -2.08475134326246
  H           0.99837743660491     -2.41657345754585      0.64646704515615
  H           0.24771327207061      0.41796238767029     -1.62873268839687
  H           1.24345675759608     -1.13022127053709     -0.61015041600514
  H          -1.24475058519615      1.21732021690043      0.92907144146950
  H           0.07792422145001     -0.48282448897341      2.09606126542212
  H           0.29271187742819      1.92264715387998      0.22551115469148
  C           2.02165063599559      0.28341569457968      1.45262925832085
  H          -2.47409889276400      1.50288364187634     -1.84538262617095
  H          -1.02168724398987      2.30327623534933     -2.16341848915838
  F           2.64158252493549     -0.88556548119366      1.82293364994063
  H           2.26739704106056      1.00952052534851      2.24118565691822
  H           2.48299053131172      0.60667971386120      0.51291291232629
