71
Coordinates from ORCA-job A2R E -96.593600926030
  Ru         -0.16986303229589      1.71539371174686      0.27402296250861
  H          -0.27664988169160      3.25164720299911      0.08924455218251
  N           0.98032185461224      2.13382885750504      1.94288124870367
  C           0.42630317426232      2.68644262533257      3.03847494848452
  C           2.30615330365705      1.89467617343512      1.95156448904850
  C           1.17225508485465      3.00788880230155      4.16257442181291
  C           3.10275582357225      2.20633124068353      3.04447737512033
  C           2.53605843998453      2.76892200975433      4.17444071153442
  H           0.68200517706451      3.44914658929373      5.01752752540300
  H           4.16071902914332      1.99874154209916      3.00135022486904
  H           3.13638167000737      3.01490671559305      5.03637356611058
  P          -1.86509029259452      1.86636030817458      1.78645782264716
  C          -3.47520079242545      2.80819564362144      1.42503697408084
  C          -2.28154047444357      0.34972211535759      2.87760806898231
  P           1.85966519318486      1.77001165145829     -0.70082544660422
  N           2.59571296577620      0.81692108725127     -1.88098290590600
  N           2.51890659583526      3.27383138016880     -1.06420209860232
  C          -1.03995117554453      2.99107598899331      3.00465309098443
  H          -1.16464358019952      3.99583104345107      2.58174705128387
  H          -1.47908734929052      2.97369375563971      4.00596754053482
  C           2.90074308322639      1.26589231626783      0.73833000243692
  H           3.95044797823001      1.53788404732197      0.60264914980531
  H           2.81820974044597      0.17441219992056      0.80268355229776
  C          -1.13993189402865      1.39993741733893     -1.25433336971490
  O          -1.71840014502602      1.23391264795992     -2.24742064142982
  H           0.06736338126369      0.19220446089711      0.50251346555440
  C          -4.11702827583234      3.50250930962303      2.62691432116923
  C          -3.13478313678402      3.88000476832217      0.38773101082865
  C          -4.45319884488324      1.83150855604433      0.77064497421693
  H          -3.46692576117801      4.27596864592832      3.02907712979954
  H          -5.03839459419689      3.98408511306054      2.29878305903372
  H          -4.37091640056718      2.81386909139988      3.42401497034813
  H          -2.73476555774959      3.42068509698224     -0.51448524513864
  H          -4.03342250331068      4.43921405774500      0.12779842797628
  H          -2.39501617876726      4.58366012408536      0.76370279643610
  H          -3.92746016949954      1.23551034701103      0.02237067776825
  H          -4.91257318219604      1.16939686719893      1.50005379231108
  H          -5.25079573661398      2.38031672552689      0.27047069921126
  C          -0.95680855101680     -0.06365356595680      3.52822384263094
  C          -3.31304967843794      0.54395452067386      3.98615655939176
  C          -2.72252707910282     -0.77358029122366      1.93671569407563
  H          -0.64837876832688      0.63911693340260      4.30068168889592
  H          -1.06092825903521     -1.04433044604394      3.99322642578715
  H          -0.16997312349332     -0.12864230857602      2.77666232786286
  H          -4.31290193219279      0.69410266157439      3.58869614894877
  H          -3.33822145395648     -0.35583643663834      4.60198311845287
  H          -3.05519495822852      1.37915282740213      4.63450118173169
  H          -3.76213032855828     -0.67068687537252      1.64034424936267
  H          -2.10370794380005     -0.74915162178399      1.03894656863031
  H          -2.60687311385656     -1.74317761511620      2.42180850320841
  H           3.26007803421432      3.24041688469723     -1.75513349484942
  H           1.82042253452282      3.97328536236690     -1.28009885850386
  H           2.57256030462360     -0.16794991784568     -1.60086071168079
  H           2.10555788420541      0.90429090449182     -2.76858891595867
  C           1.08029975207252     -2.28465800900843     -0.74915190866491
  O           2.23332706825195     -1.91370262765323     -0.87635371924794
  C           0.06423740868170     -2.01589874616269     -1.79007448932853
  C          -1.30549235339375     -2.10214162958786     -1.54543317304688
  C          -2.21080250766349     -1.79955491839402     -2.54390698817523
  C          -1.76782140361256     -1.42060957501553     -3.80061457642008
  C          -0.40927705868032     -1.34790738170495     -4.06028087545180
  C           0.49869783185573     -1.64021018039973     -3.06229020897370
  C           0.63645966549762     -3.04025473077525      0.47402599658289
  H          -1.66951863146165     -2.38407251432351     -0.57054299395016
  H          -3.27016482650560     -1.85041287052502     -2.33942886431231
  H          -2.48056172721035     -1.17675263248114     -4.57401976060918
  H          -0.05951815326384     -1.05677371826290     -5.04023643416776
  H           1.56109725553242     -1.60055501757282     -3.25795857275799
  H           1.50758776954365     -3.34015948675009      1.05217552226402
  H           0.04885700314838     -3.91365773095092      0.20347320534232
  H           0.02350580364553     -2.37822948397788      1.08356261684183
