71
Coordinates from ORCA-job A2S E -96.592886992290
  Ru         -0.29921721239489      1.89211239009198      0.16750673090943
  H          -0.33987280039566      3.43448462457917      0.01302704090114
  N           0.89941505660757      2.22288864757821      1.82010680291639
  C           0.38958200972700      2.76873550032316      2.94008671761512
  C           2.21298942058622      1.92632226459263      1.79759165988390
  C           1.16661896506656      3.01896445664808      4.06118901250684
  C           3.04002627429737      2.16504543154792      2.88666125627065
  C           2.51730556662295      2.71443006172296      4.04367352280199
  H           0.71109940302633      3.45718467910714      4.93665746377809
  H           4.08694300047735      1.91251630690598      2.81856878638647
  H           3.14133970598636      2.90335961649723      4.90327245128281
  P          -1.96272105960090      2.10031290287414      1.70896176601826
  C          -3.52142005650812      3.14299532173065      1.39345791323572
  C          -2.44710694075597      0.59199358838057      2.77753200577111
  P           1.70844699948077      1.86728822724086     -0.85543326153794
  N           2.35746480248460      0.86410223618702     -2.04752209273471
  N           2.43245787687291      3.33082681839273     -1.25598162982136
  C          -1.05792553930423      3.15262399187292      2.93514146668912
  H          -1.13226381550962      4.17097123091504      2.53321667742426
  H          -1.48313298075900      3.13921171422621      3.94233654806383
  C           2.76247384010833      1.31412343447214      0.55563195092850
  H           3.81618786662232      1.56091565574859      0.40284402007881
  H           2.65243505617902      0.22450791515353      0.59689690583921
  C          -1.32069060458802      1.59596095147361     -1.33079380853719
  O          -1.92809397516649      1.36202114574630     -2.29335624010712
  H          -0.10118283202301      0.35272182340795      0.34355703811757
  C          -4.09843766973080      3.85230838400228      2.61937048584687
  C          -3.13795506195272      4.21215491761301      0.36822148750608
  C          -4.57186527093839      2.24280900712617      0.74176005136180
  H          -3.39627146469421      4.57771757385723      3.02344236176375
  H          -4.99451499312924      4.39454528085752      2.31690043315441
  H          -4.37984548995453      3.16482980768281      3.40825952078847
  H          -2.78134017568985      3.74647701691865     -0.54884974732169
  H          -4.00703409908930      4.82685315377584      0.13469844505451
  H          -2.35214666698778      4.86510836608270      0.74199746927705
  H          -4.10212756890393      1.63392825327327     -0.03250105263373
  H          -5.05439221305785      1.59262058885565      1.46704214126853
  H          -5.34574018652999      2.85063358287105      0.27357269587893
  C          -1.13979701660102      0.09441732132197      3.40216281265293
  C          -3.45448072611855      0.82319788984049      3.90119315799597
  C          -2.95826017387701     -0.49271308041750      1.82917582694851
  H          -0.77873021411731      0.76681138772195      4.17882756245099
  H          -1.29320632099767     -0.88630564303820      3.85183372047201
  H          -0.37113496608403     -0.01186935526834      2.63674958823338
  H          -4.44900300313067      1.03252634817555      3.51751496124202
  H          -3.52000264164534     -0.08419312869508      4.50253152984571
  H          -3.14532067786488      1.63253416920656      4.55977378401448
  H          -3.96388867109030     -0.28513924856907      1.47648972923047
  H          -2.29338645122007     -0.56028034239509      0.96808393439137
  H          -2.96728410380399     -1.45745464176410      2.33465698538958
  H           3.14000732263747      3.25382599826970     -1.97775867777003
  H           1.76604691096771      4.06817654645881     -1.44491235417170
  H           2.31795804265054     -0.11126941912422     -1.74159009321029
  H           1.83746172814111      0.94916689558022     -2.91796654993647
  C           0.86030394573492     -2.12575910961912     -0.56648986437768
  O           2.00558277463789     -1.74313651512124     -0.72400031312221
  C           0.39599739035012     -2.61004447623681      0.75637884203004
  C          -0.86039626337112     -3.17524080811445      0.96524435636738
  C          -1.21655365624511     -3.63173121952811      2.22079364417142
  C          -0.33609236166400     -3.51972792378300      3.28475445580459
  C           0.91092006671617     -2.94729060196544      3.09100865513890
  C           1.27415259192802     -2.50286410969187      1.83601386822743
  C          -0.12260934591701     -2.13347147760694     -1.70408753057287
  H          -1.56590290870973     -3.26382281717302      0.15459188990550
  H          -2.18817936744592     -4.08041691702432      2.37129346777437
  H          -0.62134734803485     -3.87810243797788      4.26352706263020
  H           1.59836736629863     -2.85245740989920      3.91878795189228
  H           2.24768847770142     -2.06617071993118      1.66685444748184
  H           0.38025396797573     -1.84208310753650     -2.62347721785793
  H          -0.91262466762127     -1.41376339858017     -1.49317288520979
  H          -0.56452686666099     -3.11845551784731     -1.83113174468831
