71
Coordinates from ORCA-job A3S E -96.551734225970
  Ru          2.07452413809907      3.52253077466223      0.06139571661541
  H           3.46121684103436      4.11101726515238     -0.09397732809077
  N           2.77443322874512      2.48561408984556      1.73752338653091
  C           2.96960015985523      3.09129437522256      2.91547983832692
  C           2.94376147611498      1.12297283971380      1.63395508830234
  C           3.21659720743485      2.39767790393346      4.08071686167778
  C           3.15561223665616      0.36862976670816      2.82710535629609
  C           3.28068937553886      0.99664831587050      4.02749561308072
  H           3.36526705343119      2.92325894355125      5.01044873899926
  H           3.22975423929422     -0.70506634622452      2.74017257593721
  H           3.44729825273481      0.43211966311197      4.93370459476089
  P           1.73516518105990      5.17860321171186      1.64719177838032
  C           2.31649459353396      6.94930466894993      1.29254348304772
  C           0.11335774166057      5.24590189790544      2.64610700396887
  P           2.95024164280466      1.66653127812111     -0.96870834577416
  N           2.42966922278410      0.73524588250176     -2.28613994283573
  N           4.57942857535926      1.83790173026322     -1.36824476686343
  C           2.94793985728269      4.59615646520067      2.90962820895022
  H           3.92864047504174      4.93825992355814      2.55734404036170
  H           2.76720278220770      5.00679821244618      3.90591065717652
  C           2.85268827514559      0.52583106197830      0.38254925896402
  H           3.10744524001923     -0.51701612747404      0.25023825684712
  H           0.90894998910052      0.29726100136027     -0.01134688104736
  C           1.46375801327728      4.39138746262759     -1.43749993387035
  O           1.11004689365040      4.92373394525089     -2.40439728883858
  H           0.51253914052226      2.51827878656696      0.20026417360307
  C           2.78671797082817      7.72504584087299      2.52385214120153
  C           3.49584671019833      6.84153129288432      0.32265437301450
  C           1.19454543262906      7.69828900317654      0.57300313696610
  H           3.63426616770712      7.23559707557246      2.99737478467707
  H           3.11141288090523      8.71652039371335      2.20877258671927
  H           2.00278632033485      7.85472138961971      3.26080939810067
  H           3.18077462106775      6.37450109833164     -0.60988818982307
  H           3.88066259160627      7.83621178516003      0.10134850947787
  H           4.30743034235432      6.25010030973073      0.74276731205036
  H           0.78726321814873      7.07714367630719     -0.22497132409803
  H           0.39367860190186      7.98037445940637      1.25123207741908
  H           1.58672959218910      8.61030907503024      0.12480551462243
  C           0.02726029233561      3.89063114162327      3.35310631608788
  C          -0.02588765832313      6.33778428004721      3.70211255344562
  C          -1.02836770656106      5.34662735213678      1.63269828316887
  H           0.68175968886862      3.84946409433585      4.22076222729898
  H          -0.99105914575421      3.70207865979279      3.69157153585168
  H           0.30251318343382      3.07868635428098      2.67968039778941
  H          -0.10803604816375      7.32685171052477      3.26041540054152
  H          -0.93772333120467      6.15514986809241      4.27148776496363
  H           0.80756454649495      6.32414028072655      4.40131744689825
  H          -1.12114671394699      6.35178678466305      1.23102756450378
  H          -0.84693061530522      4.66343462318134      0.80093878485376
  H          -1.97534206920122      5.07717308524528      2.09917312256503
  H           4.93525228646397      1.07994514221923     -1.94116732574618
  H           4.84771439165897      2.74915357071037     -1.71500683758232
  H           1.48527994446849      0.38264875940695     -2.16191006542138
  H           2.48891973670476      1.25113821223321     -3.15932371917501
  C          -0.36270773610408      1.80319772119531     -0.05822175430239
  O           0.13280657587034      0.58774879421175     -0.54927521010408
  C          -1.15988690563233      1.56561176868620      1.21197548333004
  C          -2.43575503404586      2.07812311412936      1.40824382634191
  C          -3.13000578718837      1.80670264316831      2.57533043237778
  C          -2.56387565282928      1.02018117723953      3.56243282973867
  C          -1.29259400027713      0.50467539769072      3.37657520483811
  C          -0.59868962193950      0.77446329319092      2.21244380473165
  C          -1.16125864251695      2.43226503556991     -1.19809944382749
  H          -2.90339840490390      2.69068756157395      0.65437130645503
  H          -4.12232415393897      2.21255848444130      2.71014743667380
  H          -3.10899205377510      0.80978234541960      4.47063520509209
  H          -0.83587470007707     -0.10785342976020      4.13957519545350
  H           0.39782867058646      0.37120287441227      2.09309463938373
  H          -0.52166128713671      2.50214705899111     -2.07664374680322
  H          -1.51542692403360      3.42849069072092     -0.94911377446357
  H          -2.00514140628636      1.78924915757782     -1.43917534979369
