71
Coordinates from ORCA-job TSA2S_3S E -96.548549374520
  Ru          0.40478283386362      0.87344775593380     -1.33594939573017
  H           0.33754737137924      2.39330410206882     -1.49399656558301
  N           1.61906938429385      1.18832417504242      0.34242471559205
  C           1.12392867433265      1.64926733106829      1.49561256496992
  C           2.92761571619372      0.82214318275150      0.25800376996805
  C           1.88184592491358      1.71071483992674      2.65176964101322
  C           3.73044270340445      0.84534094393407      1.41942913275433
  C           3.20749743069408      1.27966729617458      2.60899904316556
  H           1.45045541409131      2.08935640182219      3.56483833911140
  H           4.75674197386733      0.52181405080251      1.34270877581804
  H           3.81332888983825      1.30328275689800      3.50265267575693
  P          -1.26446014414053      1.14512830959805      0.24981481230312
  C          -2.74132578290073      2.28064942676357     -0.11272421769810
  C          -1.85770948409649     -0.32574219734005      1.30355232525873
  P           2.44909292084646      0.99789028454898     -2.38559193355301
  N           3.05634881330075      0.11327604740557     -3.67067236374740
  N           3.12993906697641      2.48859744823954     -2.81207031733066
  C          -0.29630306067333      2.13743214074830      1.47695140381177
  H          -0.29350648907998      3.16227441886400      1.08630943338265
  H          -0.73729764662584      2.14269622408519      2.47648203022519
  C           3.42984401283638      0.38590968811297     -1.00545590163310
  H           4.50832416250115      0.39563201503403     -1.13643225166823
  H           3.04458224933801     -0.93980179932264     -1.28347306503571
  C          -0.62558077079634      0.60792634193006     -2.83523492817612
  O          -1.24967106927989      0.46678066555579     -3.79950966825396
  H           0.76307798613611     -0.90856644676862     -1.17710351186214
  C          -3.29670124039713      3.01841931991426      1.10656950938674
  C          -2.26777476723188      3.32881980907255     -1.12228541616861
  C          -3.83245227996379      1.44998108936455     -0.78906646536810
  H          -2.55262213138436      3.68338236000541      1.53839812592543
  H          -4.14044449908408      3.63025409138347      0.78814039421314
  H          -3.65145536926079      2.34518040192899      1.87793848772381
  H          -1.93392660049485      2.85039679223246     -2.04195681507181
  H          -3.08822670924184      4.00481778690725     -1.35950212345675
  H          -1.44467669464934      3.92229537263380     -0.72886556617697
  H          -3.39399200620396      0.82861047537445     -1.57048843802573
  H          -4.35809480830199      0.81611925625332     -0.08002002202178
  H          -4.56579973579637      2.10861743778756     -1.25257679374242
  C          -0.59642233296001     -0.85405985488229      1.99248677848812
  C          -2.90379491940586     -0.05500679150496      2.38045842212408
  C          -2.36957127292823     -1.38787974317124      0.32889239785962
  H          -0.30129775328761     -0.22286952614516      2.82828616894440
  H          -0.76851796592330     -1.85892237530901      2.37603733271524
  H           0.23763125133336     -0.91497697171520      1.29295190879995
  H          -3.87252607082518      0.19502317751386      1.95723431463460
  H          -3.02915024414644     -0.96037477889204      2.97481567068984
  H          -2.58913695756436      0.73974193441610      3.05387805498148
  H          -3.36341029241698     -1.15024523604405     -0.03978972854468
  H          -1.69605665605542     -1.46234896118398     -0.52692381349272
  H          -2.41098740923709     -2.36057067971182      0.81684413385118
  H           2.89441194321656      2.75620046911382     -3.76245387837407
  H           2.81831116024267      3.21918498044486     -2.17874916958326
  H           2.99993964872276     -0.88230899300157     -3.45161137691101
  H           2.59513045604565      0.31197137362287     -4.55232896926715
  C           1.20296481269799     -2.00659037233555     -1.45557244428925
  O           2.51604240272228     -1.93447444057184     -1.78090202568299
  C           0.99570147470251     -2.86542557423729     -0.21782348234999
  C          -0.02858873946658     -3.79614963688131     -0.09739366026648
  C          -0.13510532485448     -4.58119658474118      1.03838800354134
  C           0.77781096924581     -4.45262423554222      2.06973650228449
  C           1.80726550700142     -3.53375139547270      1.95597635246738
  C           1.91468486858214     -2.75108256396755      0.82257973672438
  C           0.38678215287358     -2.47475711668783     -2.66803099060534
  H          -0.75048599035148     -3.92739819304599     -0.88774045918223
  H          -0.93705351886855     -5.30227428897945      1.11327250415688
  H           0.69153788389617     -5.06805928265965      2.95351448632888
  H           2.53083984290308     -3.42697677681667      2.75106387618113
  H           2.72754636210358     -2.04366872713119      0.73774110833311
  H           0.63717319465605     -1.85084510572438     -3.52539215729696
  H          -0.68481295655906     -2.40872707342353     -2.49599287241982
  H           0.66070023470121     -3.50219625206760     -2.90107214491646
