20
Coordinates from ORCA-job NEB_reactant E -49.543435233520
  C           0.45576348694547      0.65303188870876     -0.89310561560100
  C           1.71970896119819      0.91516313227107     -1.21968205937635
  I          -0.63946653639537      2.02654589633076      0.23209543100699
  H          -0.05499030400158     -0.25379418208569     -1.15224803742034
  C           2.49551019043230     -0.08926580014139     -2.04460900607784
  C           1.83190163531446      3.52736959809321     -3.10491713561765
  C           3.06896392525526      3.25902790143488     -2.72139285584586
  C           3.42301092503183      2.59031239585914     -1.42929685489478
  O           2.31148281497681      2.03821984816901     -0.75203764460773
  C           1.51006299875362      4.18553332407277     -4.40726600929487
  H           0.96028361707646      3.30324593644635     -2.50842150925578
  H           3.91198268619989      3.51564254455203     -3.34705318085032
  H           3.82175725355928      3.33859454333642     -0.73528623426799
  H           4.20867309213817      1.84624384814194     -1.60250003679358
  F           2.84888382122626      0.41104030613600     -3.25604088784637
  F           3.65391377766857     -0.43739701660279     -1.43140147713285
  H           1.91480058819453     -1.00583125136074     -2.21806273234553
  F           2.58780719238081      4.43630514454101     -5.16134804101581
  F           0.68412445656809      3.43074843204453     -5.15382017539143
  F           0.88332541747694      5.36236351005271     -4.23200593737092
