22
Coordinates from ORCA-job NEB E -41.188667096590
  C           0.36252444880193     -0.55934925239000     -0.94476247478098
  C          -0.90059310860461      0.05573033704785     -1.18395369258371
  N           0.39335213303136     -1.92854753422862     -0.77671464754879
  H           1.20598711359593     -0.17727197844974     -1.51343435011928
  C          -0.93003354968558      1.37528650193954     -1.94059889651443
  C           0.65022361572759      0.29528762534867      0.80885513982716
  C          -0.46614671344199     -0.14380574115771      1.53616361104783
  C          -1.72958051849108      0.34548371602774      1.21776568031597
  O          -1.91068033853560     -0.26921114368458     -0.48299619485413
  C           2.02845479945461     -0.16784433808228      1.21245345586608
  H           0.66846720190180      1.33282313253202      0.49878088481937
  H          -0.39031927564193     -1.09226800508197      2.05138705565399
  H          -1.83377513749669      1.38977833819859      0.95977026590301
  H          -2.59451504984998     -0.09100329084332      1.69173017418099
  H           1.24573754815425     -2.31335927739092     -0.39834961124568
  H          -0.43208752005360     -2.29170225414706     -0.31826871719527
  F          -0.44869245526185      2.42311516459274     -1.19921568001494
  F          -0.13766096663531      1.32602198324665     -3.03789733248147
  H          -1.95059616284046      1.63836902387901     -2.25281831992777
  F           2.04013759349295     -1.48744700582328      1.59938793906250
  H           2.37658178173715      0.41207922003046      2.07575111503013
  H           2.75321456064110     -0.07216522156377      0.39696459555939
