22
Coordinates from ORCA-job NEB_reactant E -41.216166221850
  C           2.15497611181465     -0.25894253164285      0.00066269974322
  C           1.81985255415171      0.91356680284214      0.56239922843245
  N           3.43929230667780     -0.61441397394146     -0.31290884254631
  H           1.39795674229194     -1.00608722455244     -0.18297730922470
  C           0.41102470009257      1.18220812484656      1.00344693448172
  C           2.91254961258471      0.98536359455999      4.05509827116927
  C           3.50178351972364      1.36517685258695      2.93470076404493
  C           2.95572749285886      2.41729881685040      2.01915836644105
  O           2.76304597958549      1.91602539119548      0.69817388389656
  C           3.42757442674815     -0.07943623785049      4.96737073549331
  H           1.99090458318761      1.43951326478035      4.39022944458350
  H           4.41207071998951      0.88475478005153      2.60342370424630
  H           3.67957841120300      3.22775551642512      1.89005249104042
  H           2.02527724265457      2.83461856056133      2.41996315346737
  H           3.56954251374409     -1.25242446081568     -1.07956803194032
  H           4.10104846630025      0.14589776523016     -0.26882444572337
  F           0.23061231134344      0.98332966118165      2.34989540669881
  F           0.04426024553293      2.46821792947729      0.78554448477166
  H          -0.31241474862110      0.52915579433702      0.49307054676141
  F           4.60499721588307     -0.62546457860609      4.52097477363048
  H           2.70617528483424     -0.90237362930200      5.04665154272597
  H           3.62626430741885      0.32405978178504      5.96846219780624
