20
Coordinates from ORCA-job NEB E -52.501506376220
  C           0.21728840950550     -0.80342914514175      0.96127722660338
  C          -1.12292848399598     -0.95402151953348      0.52093441000850
  Cl          0.43578553727881     -0.14570615615716      2.56993458696371
  H           0.87202742930569     -1.65910232225803      0.81088877156275
  C          -1.37568727412621     -2.00637664200080     -0.55270289885959
  C           0.81266998960014      0.52665553344893     -0.18965516705539
  C          -0.13988434105103      1.55275848910942     -0.01359396936651
  C          -1.49157697198455      1.28730483084075     -0.36290599553624
  O          -1.93422728057654      0.04981357601479      0.58560097566319
  C           2.26278921841186      0.86280467730620      0.05247759537207
  H           0.73513240236563     -0.04120493186691     -1.11794403191533
  H           0.05602394917070      2.32301876627638      0.71917235448527
  H          -1.66860961452853      0.86892349190505     -1.35064072177873
  H          -2.21034317964143      2.05365957864039     -0.09971646374552
  F          -2.66994207639062     -2.24633599134517     -0.72946517416403
  F          -0.88848982200473     -1.62342861797375     -1.76336414072973
  F          -0.77221271437483     -3.16584133786655     -0.26915440815804
  Br          2.88751448439468      1.80318872456948     -1.56903815343234
  Br          2.61324334147615      2.03861249238853      1.54929183625256
  Br          3.38142699716529     -0.72129349635633      0.24860336783001
