20
Coordinates from ORCA-job NEB_reactant E -52.539117557660
  C           2.24987441605859      0.42658489654123     -0.26978181624640
  C           1.54797178902168      0.63245994894335     -1.38425601764517
  Cl          3.03219457782050      1.60001226557451      0.70820742988954
  H           2.36865619153599     -0.57721173735822      0.10547402330430
  C           0.92372527959331     -0.56632990965568     -2.08656338643251
  C           4.09811755631110      3.83073076069288     -1.43021515556324
  C           3.25814588549455      3.03541483807207     -2.07251449483084
  C           1.78766912065892      2.99356106374543     -1.79544486432300
  O           1.22118824333926      1.73114140519429     -2.09868855392488
  C           5.55687913003713      3.91710733045395     -1.64805944479341
  H           3.74509957353354      4.49264243508843     -0.64821510591389
  H           3.58969152481468      2.36465958853196     -2.85424944505836
  H           1.27098791556065      3.67449594329567     -2.48191526696115
  H           1.56215825522901      3.29278956026624     -0.76747482870269
  F          -0.40314740433809     -0.44303541989321     -2.18135289029196
  F           1.39425499255770     -0.69591517943806     -3.33163692762887
  F           1.16140592848470     -1.72345559279063     -1.46116430531422
  Br          6.04489059046790      5.77770048932047     -2.09109198161160
  Br          6.47815520822689      3.43565270927291      0.03048396515286
  Br          6.24308122559203      2.76969460414242     -3.05194093310451
