22
Coordinates from ORCA-job TS E -46.987679307680
  C          -0.77646802502697      0.38699146124811     -1.11047523062616
  C           0.54461935418463     -1.93075054128406     -0.05998278260213
  C          -0.79338772171612     -1.88946652088301     -0.26933342415219
  C          -1.44443746276338     -0.76914037062611     -0.82305580312036
  C          -0.12257861157005      0.85378808986165      1.00382575289453
  C           0.74406768509562     -0.10290840933162      1.42823188106946
  H          -1.42350765403824     -2.66450273009225      0.14284925839320
  H          -2.52681782913943     -0.77170200194925     -0.83223944961499
  C          -1.49337838805407      1.57103456448657     -1.63783964378741
  H           0.97977129507411     -2.75794363014437      0.47444116501479
  H           0.27596855193891      0.36889051787485     -1.35179210569482
  H           1.23084319209379     -1.33948965798939     -0.63680622624410
  H          -1.13952968266642      0.84044499895571      1.35342755714309
  H           0.44147431731203     -0.86020244018508      2.13218052403185
  H           0.25536867243491      1.78645620485686      0.62284253053612
  C           2.21652868925171      0.12206320540382      1.34212797423807
  Br         -3.08703697494604      2.01550459776987     -0.60077041656969
  Br         -0.35334011945116      3.15358100631540     -1.69923279964423
  Br         -2.08989639649030      1.21948462798019     -3.51110139972047
  Cl          2.71787558088262      0.79634220243538     -0.22751615266793
  Cl          2.68995598387637      1.32254818318669      2.60732550975388
  Cl          3.15390554371748     -1.35102335788995      1.65289328136951
