18
Coordinates from ORCA-job NEB E -41.110886308370
  C           0.68370350395419     -0.25209594830207      0.20384449800035
  C          -0.02330616778234      0.11499048855483      1.38385262031389
  Cl          1.63502704949675      2.52282916899930     -1.09650433670098
  H           1.43044625631308      0.39643382238272     -0.22952742286059
  C           0.15398028497705      1.55543575875800      1.87503055988055
  C           0.29084548000922     -1.48536645237940     -0.50394087644359
  C          -0.54148718744738     -0.61791537336814     -1.44022184902249
  C          -1.82403163653935     -0.33247772199124     -1.20548712426224
  O          -0.78140080915230     -0.60859054713239      2.00512641383499
  C           1.34213034845842     -2.20680932460426     -1.16673919719282
  H          -0.31932013231971     -2.15308921169797      0.11109287548625
  H          -0.01846585377967     -0.23095779061541     -2.30271457653440
  H          -2.33563814575028     -0.67805833019896     -0.32076704574383
  H          -2.40097070702174      0.24991317921309     -1.90488001620060
  Br         -1.07542383832152      2.63924064486499      0.83361280812703
  Br         -0.33978115769795      1.65878415014771      3.73109670959725
  Br          1.97136274183616      2.26095358820601      1.69784813043542
  N           2.15232997076737     -2.83322010083683     -1.67072217071421
