25
Coordinates from ORCA-job P E -38.763941918440
  C          -1.30788437028342      0.36340590972361     -2.29083635245929
  C          -0.07687451518341     -1.72977783347167     -1.03075282184065
  C          -1.44556796235097     -1.94570192686689     -1.59092113983853
  C          -2.04009106897433     -0.94431895542612     -2.21890447146392
  C          -0.82461787412205      0.72035555290775     -0.86956950222079
  C           0.00742842934322     -0.40947212548430     -0.23642941716607
  H          -1.90506573225763     -2.91527039067232     -1.48425454869129
  H          -3.02438838101931     -1.01622837754672     -2.65066312502789
  C          -2.15543366268014      1.49841980916131     -2.82233184474156
  H           0.22795415261958     -2.55716137824601     -0.39115399998826
  H          -0.43522169873774      0.27336734723554     -2.94846610645662
  H           0.63375127708914     -1.67806737742735     -1.86272018484399
  H          -1.71031883611347      0.90908864846280     -0.26160963566253
  H          -0.36933206721805     -0.60197691645862      0.77244499532398
  H          -0.24037657509608      1.64180678566473     -0.90912878084853
  C           1.46771799481410      0.01988136671576     -0.10620590986715
  O          -1.79446655061897      2.29577059834836     -3.64765285310337
  O          -3.35909279392874      1.53041763662617     -2.24058515719845
  C          -4.22614345233800      2.57736722647668     -2.65229283747091
  H          -5.15427197878202      2.43759027585614     -2.10427580642274
  H          -4.40241916027790      2.52273534215041     -3.72839305604915
  H          -3.78463553134796      3.54845128284317     -2.41931536414228
  F           2.20418565998441     -0.95948980314685      0.51591437275912
  H           1.56838580444412      0.92052959539691      0.50870554753970
  H           1.92720889303561      0.18365770717748     -1.08689200011884
