20
Coordinates from ORCA-job NEB E -40.441821354270
  C           0.00302813410898      0.38639184266405     -0.39184856915769
  C           0.56768985627116     -0.18537375527176      0.87463609121795
  O           0.96880126375665      0.83612647275444     -1.30381747369547
  H          -0.68577254109983      1.21020460992238     -0.14063693767375
  N           0.66306363451327      0.61361693764793      1.99703305334429
  C          -0.76969803633605     -0.78134668767234     -1.12825949923286
  C          -1.43307380508425     -1.67304388632108     -0.19540994147710
  C          -0.62968496756227     -2.19130377165536      0.91792840702867
  O           0.62921900011413     -1.52619648971955      1.04058535977381
  Cl         -1.86585573540628     -0.09258548843069     -2.33905459169221
  H           0.03887880245951     -1.29582918723176     -1.66923084807360
  H          -2.50112061895589     -1.80243288361810     -0.20562674203550
  H          -0.36457682970966     -3.24932000200667      0.78258742150927
  H          -1.18945662908956     -2.12285369318297      1.86723376766062
  C           1.23123791805775      2.22651791765925     -1.25275656040107
  H           2.05707131375828      2.39321550684453     -1.94027794370963
  H           1.50918538131603      2.54191527990788     -0.24472502708540
  H           0.35585487703349      2.79726747577446     -1.57989101066851
  O           0.84091275676664      0.08026096267583      3.08798033043773
  O           0.57429622508791      1.83476883925952      1.82355071393044
