22
Coordinates from ORCA-job NEB E -31.834281364200
  C           0.34472456900264     -0.69424404179733     -0.39389479679529
  C          -0.90762364112889     -1.00095388854897     -0.87185257890570
  C           0.58593748486545     -0.71423885301803      1.09325905910628
  H           1.20183919816953     -0.98855301809198     -0.98839949610384
  I          -0.96787838836360     -1.55147114555261     -3.00851412928434
  C           0.22177329754358      1.39780926181845     -0.83210085343657
  C          -0.94902651867211      1.66392727394036     -0.12219249332406
  C          -2.16965583639269      1.14907528698676     -0.55421372647739
  O          -1.98810157049164     -0.64133272415912     -0.36805699894477
  N           1.42109259601156      1.93930889893051     -0.45235132606078
  H           0.15280289400756      1.22497452062502     -1.89928500674881
  H          -0.85222560476465      1.98104520235578      0.90701215555761
  H          -2.36807994905292      1.10391849686108     -1.61716486315636
  H          -3.04486023746333      1.30542629866147      0.05671349937236
  C           1.04022753507289     -2.10529648803664      1.53560813349232
  H          -0.33352159562841     -0.44803182096129      1.61602173624210
  H           1.36274952806570      0.00836105076299      1.35745699731651
  H           0.27031197498525     -2.84134425606736      1.31751068251671
  H           1.23402874984440     -2.11393183528247      2.60563567206222
  H           1.95160404943048     -2.39623404884518      1.01708483495168
  H           2.24514282705175      1.61757073225434     -0.93259744133752
  H           1.54873863790746      2.10421509716421      0.53432093995764
