18
Coordinates from ORCA-job NEB_reactant E -41.727453507820
  C           1.70054370187360      0.03109376529152      0.04799564327776
  C           1.05991846177712     -1.14901642639931     -0.04333361329717
  C           2.03920093191426      0.82965620621653     -1.14471421573193
  H           1.98834971395333      0.42657095351833      1.00583691995227
  O           0.73494190177468     -1.90356623624989      1.02600551741125
  C          -0.02986008588658     -4.33118092318025     -3.27292162908104
  C          -0.30558517748932     -3.18122461553589     -2.68521178497398
  C           0.02504838299240     -2.89440918864142     -1.25621167498449
  O           0.70481558905007     -1.64294399310630     -1.22582593394166
  Br         -0.48577152367619     -4.69064032361564     -5.06539510337488
  H           0.45137146234346     -5.16230744207554     -2.78147996737180
  H          -0.77737006116193     -2.37122763206179     -3.22165401840545
  H           0.65719544547510     -3.67821423555994     -0.82391105222815
  H          -0.89756922549151     -2.82240937122559     -0.66404051279126
  Cl          0.57633900218303      1.28137047466804     -2.07820447261700
  Cl          2.87054205736183      2.31906248037329     -0.67761397095851
  Cl          3.10676881287346     -0.07398687405028     -2.26835422215870
  H           1.02282061013318     -1.47792661836586      1.84203409127475
