18
Coordinates from ORCA-job NEB E -42.099119394500
  C           0.61023504363210      0.23506984256002     -0.83093912063055
  C          -0.62080704490060      0.89112755588651     -1.31698440137236
  Br          0.83253368011661     -1.43392747584438     -1.98234513250509
  H           1.50994655449783      0.80123157113261     -1.07160730980128
  C          -0.65736890611303      1.31124531101363     -2.64646241643351
  C           0.51811795429929     -0.07710669338422      0.67863415565162
  C          -0.83779554601496     -0.61614068641733      0.95550823251775
  C          -1.87863717431271      0.38901226697014      0.69894228286563
  O          -1.74074032534563      1.00552441115634     -0.62438137247235
  C           1.65362425435881     -0.92951222732541      1.24977020147638
  H           0.61555232726203      0.90954321531140      1.15941839860239
  H          -1.03267516484674     -1.65451047720345      0.75376955178261
  H          -1.82779982113146      1.23158959371323      1.40435277310480
  H          -2.88820774559587     -0.02425032091836      0.70967561724477
  N          -0.62504927553229      1.70841175802128     -3.72876280623624
  Cl          1.66881613130133     -0.67793269565784      3.01980159084222
  Cl          1.46933271172350     -2.66435581066425      0.96461713800072
  Cl          3.23092234660181     -0.40501913834991      0.60699261736251
