18
Coordinates from ORCA-job NEB_reactant E -42.157483237340
  C           1.83693825354256     -0.22342271835614      0.50285436369930
  C           1.49912095246906      1.02118961211971      0.87567912476162
  Br          1.72962962421034     -1.84292038603643      1.46718593979258
  H           2.21408572080166     -0.37399297992176     -0.49624600554682
  C           1.67789388320659      2.00579235731989     -0.14777627970921
  C           2.67216901328328     -0.48110339553840      4.46419835980200
  C           2.34942907178088      0.58736122844430      3.75364270991589
  C           0.97307643512810      0.84908472650298      3.22177625905947
  O           1.00367958942665      1.57018395453759      2.00394356550074
  C           4.01892883395724     -0.77643873100379      5.01484202849426
  H           1.94158935030925     -1.24567628132413      4.69031062576127
  H           3.08017682582672      1.34997939071090      3.52157989908254
  H           0.44760082395260      1.52807209178918      3.90342289440149
  H           0.38954202268277     -0.07234261876501      3.13476984526061
  N           1.82563900540274      2.78269537551929     -0.97452225906307
  Cl          3.90524372678369     -0.93326317512116      6.79396851239334
  Cl          4.58601717714647     -2.33855309079394      4.35130250186260
  Cl          5.23063969008941      0.45675463991693      4.64426791453139
