18
Coordinates from ORCA-job NEB_product E -42.156923230980
  C           2.87383952248077      0.52906128458461      1.89431310079242
  C           1.94654179726809      1.63530171241792      1.41809668544993
  Br          2.57464126831918     -0.93385681488508      0.61683340126004
  H           3.91587502002068      0.82965339715883      1.74841952408637
  C           2.23769438099147      2.05001248601071      0.05626170657897
  C           2.59881238010551      0.14474296066433      3.35288159241967
  C           1.48028986522304     -0.85800923674925      3.47925776499419
  C           0.24653331127469     -0.52300369622530      3.80248009675823
  O           1.07236653521028      2.12280886107880      2.07970722731668
  C           3.86067424828032     -0.36093128501543      4.05144234335585
  H           2.29577660528448      1.06788952390509      3.86503656705156
  H           1.74797942897845     -1.88243181147006      3.26477605902287
  H          -0.03363420149054      0.49640737039949      4.01039798927965
  H          -0.53558970011412     -1.25936488339183      3.85871039011406
  N           2.48848666204450      2.41088414591925     -0.99949929248708
  Cl          3.47196820214580     -0.76691867456575      5.73936750946974
  Cl          4.53644374231100     -1.79830452471965      3.25779585892606
  Cl          5.11700093166643      0.91445918488330      4.06252147561078
