19
Coordinates from ORCA-job R E -32.368441207810
  C          -1.09952297219760     -0.26310714341192     -2.67797060474373
  C          -0.21587311085027     -2.94672272243703     -1.68809860824811
  C          -1.44944377988837     -2.63031347465446     -2.07789641718806
  C          -1.89866319495179     -1.28352722942511     -2.34292247043522
  C          -0.99399138198286      2.03006292319831      0.40744708774804
  C          -0.16822517720178      1.01263483849347      0.23637331198408
  H          -2.20160973405267     -3.39809570334233     -2.19214834349977
  H          -2.96349218869375     -1.09220821476388     -2.27964216572808
  N          -1.62151307670130      1.04429133669902     -2.86675032077368
  H           0.06774804350038     -3.96572036820423     -1.49100061993048
  H          -0.02829543909398     -0.32862465778861     -2.77555308267821
  H           0.53986109575639     -2.19473468725639     -1.52985928723656
  H          -1.72902131477105      2.02529577114176      1.18860002050386
  H          -0.16912105631027      0.13063933305863      0.86210918045180
  H          -0.96316368990654      2.88773897323396     -0.24521869065369
  O           0.77875362770527      0.91586175319187     -0.72872957331670
  O          -0.81055452288426      1.95501005059033     -2.89255081974400
  O          -2.81988578049191      1.19091275608723     -2.97999522847297
  H           0.72293365301634      1.69218646558938     -1.30863336803853
