19
Coordinates from ORCA-job TS E -32.349326875200
  C          -0.48053323899516      0.40519954540741     -1.13370935692994
  C           0.81949035200819     -1.72646263915285      0.19130683457046
  C          -0.48737497530409     -1.81627260527589     -0.18891783257633
  C          -1.12996299005168     -0.77816583299857     -0.87286873894631
  C           0.00484038972316      1.04768417012815      0.94143044624068
  C           0.85941245496921      0.15058589879008      1.51301416208208
  H          -1.10174787092440     -2.61647424698970      0.19813083868652
  H          -2.20396093270903     -0.79922853574814     -0.99149575584595
  N          -1.20924775256562      1.52133066106466     -1.62471654333573
  H           1.24830710159832     -2.47629485547994      0.83525423651988
  H           0.57073466360731      0.46972576889555     -1.36360148123377
  H           1.53167534702596     -1.15780522244110     -0.37835485226257
  H          -1.03385573744662      1.03250729130662      1.21328034995290
  H           0.53878806500657     -0.56218073224596      2.25479227163516
  H           0.38826205609695      1.97345389838256      0.54187786865939
  O           2.20726494807686      0.30919425727197      1.51587071240883
  O          -0.55289627042306      2.44897637487776     -2.06553628369576
  O          -2.42147649045088      1.51050298852656     -1.54954997919908
  H           2.45228088075802      1.06372381568084      0.96379310326955
