18
Coordinates from ORCA-job NEB E -34.882056851100
  C           0.32328179997545     -1.20978605667212      0.47308947518106
  C          -0.93588485443730     -1.41570945515320     -0.09590429409077
  H           0.36705398347658     -0.99026071522067      1.53047052234870
  H           1.14750428313445     -1.80754432804352      0.10521542110929
  C          -1.04541754081854     -2.08555364065327     -1.33824834252889
  C           0.63514761596591      0.59053752945330     -0.15013898164840
  C          -0.50294810173944      1.26288827440086      0.28422760338336
  C          -1.78502553809134      0.79501955215103     -0.20780492303296
  O          -1.94148430842778     -0.63282132377807      0.29734831226740
  C           1.96823522995122      0.97731063025985      0.44950317820647
  H           0.73420062272398      0.35239319231634     -1.20479692434645
  H          -0.48026878471164      1.72650065092294      1.26031470239549
  H          -1.85458559067260      0.72753384457871     -1.29580714994140
  H          -2.64643141736275      1.30812958643786      0.20892825616833
  N          -1.14718305923747     -2.65022091022905     -2.33364410729783
  F           1.93617192420770      0.95062917656019      1.80193051399822
  F           2.93934050523186      0.11342935548107      0.07214176064406
  H           2.28829323083170      1.98752463718775      0.14317497718430
