18
Coordinates from ORCA-job NEB_reactant E -34.909391119380
  C           1.96437531868516      0.48644243361670     -0.02318140664522
  C           1.46679133542238      0.47371108274451     -1.26162508047990
  H           2.27168367862088      1.38588165402320      0.47747024577130
  H           2.08226306647823     -0.43747988752691      0.51208136055540
  C           1.10146319969766     -0.77346454438882     -1.85063558664143
  C           3.45090224839508      3.93948982651952     -0.53342241583414
  C           2.95889131374057      3.09578747486249     -1.42451633662636
  C           1.49562736838215      2.82043410782857     -1.60498401552144
  O           1.23199924137180      1.52506942380139     -2.09269693574585
  C           4.91321001426125      4.22879878468470     -0.38064068767269
  H           2.82568880433712      4.47720748944814      0.16497050015213
  H           3.61371812090613      2.56537169244218     -2.10300036168007
  H           1.10025829283899      3.48290202573982     -2.38380219419144
  H           0.94229298403975      3.00611408710888     -0.67451147097602
  N           0.81484493702816     -1.78792056016526     -2.29630975211281
  F           5.31476900264964      3.97150733534155      0.89352433243343
  F           5.67752585951661      3.45558374934264     -1.18365996122752
  H           5.16379521362847      5.28326382457668     -0.59096023355736
