18
Coordinates from ORCA-job NEB_product E -34.918011548680
  C           3.08705689377474      1.30560610087791     -1.14601773459745
  C           1.81797429881710      0.83753233726698     -1.81238940763135
  H           3.21263570619387      0.78425151864990     -0.19251998734853
  H           3.92499095362576      1.00904361454742     -1.78766749322730
  C           1.71852581711937     -0.61590082891165     -1.81489964117172
  C           3.09035456371077      2.82692273040361     -0.94144552131818
  C           2.12897416223498      3.22284140959850      0.14465817462035
  C           1.05711752776327      3.96327342712397     -0.05776843336516
  O           0.98020580732885      1.54597731383124     -2.30325559855523
  C           4.50086606132282      3.29317601979728     -0.57931645145541
  H           2.81312957601564      3.31456382417426     -1.88145110637163
  H           2.37059812827664      2.84255803352978      1.12848089261867
  H           0.80105089437618      4.33559593165771     -1.03536024578125
  H           0.38359106975515      4.21320548985832      0.74328241676333
  N           1.66192042058594     -1.75854525977302     -1.80558791530896
  F           4.97006923838571      2.63477981446246      0.50804252707446
  F           5.37038403018693      3.02088213640927     -1.58406039151621
  H           4.55445485052628      4.37183638649605     -0.36892408342842
