25
Coordinates from ORCA-job NEB E -47.096275899270
  C          -0.16998590786644     -0.99419010354481     -0.52580013040437
  C          -0.73456641758543      0.14122782051825     -1.12120716124319
  C          -1.01528950124361     -2.08606515951964     -0.01781722036648
  H           0.73634573054563     -1.35587546558364     -1.00459750095087
  O           0.05851493074152      0.71874900002964     -2.06237834702987
  C           0.64349517954126      0.14249521328830      1.16512604944088
  C          -0.54622340932514      0.68668047071081      1.63275521572903
  C          -1.23669930664325      1.62548836110767      0.86635436821784
  O          -1.73697246234808      0.74363910566576     -0.64478146836036
  O           1.28541951644198     -0.76664848198038      1.91037201674425
  H           1.25775823767706      0.71307136239615      0.46972307130750
  H          -1.05392620261397      0.16301241608628      2.42780387298188
  H          -0.67343903135041      2.37707196229882      0.33061842371519
  H          -2.21064112394182      1.94388158012873      1.20315585587778
  Br         -1.53007960085065     -3.25693264636462     -1.59875557168658
  Br         -0.06653480041298     -3.27980059568290      1.19122637170334
  Br         -2.67829051386427     -1.59811746721345      0.81668200777819
  C          -0.37056103264962      1.95051113833490     -2.61935637279501
  H          -0.20689949588640      1.89150072093252     -3.69452738819926
  H           0.22323295484695      2.76822646373286     -2.20372077426267
  H          -1.42808269239034      2.11895435089102     -2.40847330153476
  C           2.60723185904254     -1.08940462717110      1.53407999108115
  H           2.64202847141027     -1.52727041066461      0.53258337899002
  H           2.95374049644880     -1.82479554577967      2.25649898011916
  H           3.25042412227642     -0.20540946261689      1.56443563314722
