25
Coordinates from ORCA-job NEB_product E -47.143812380790
  C           2.72249666049066      0.31529536551447      1.02758472973549
  C           1.98134506082246      1.35152616816863      0.18522319507130
  C           1.77785119095855     -0.79361617987774      1.44279073587279
  H           3.49620499417958     -0.13170260603196      0.38665346316396
  O           2.82422512336555      2.25344251380720     -0.30658198475872
  C           3.51171982535439      1.00780842041419      2.17103801858293
  C           2.64831120870629      1.43416079261668      3.32732449791003
  C           2.15645193620432      2.65182583464609      3.45557369249327
  O           0.80006795312466      1.34733059631087     -0.02033903950746
  O           4.51958781179970      0.09603441062794      2.55172886300492
  H           3.98135345750595      1.90128575726237      1.72278399738195
  H           2.47114156440044      0.67475218912871      4.07697171292582
  H           2.34256353548589      3.41990615785258      2.72181747162814
  H           1.53328707610931      2.92395763879823      4.28867390257709
  Br          1.18742459461450     -1.73254109997572     -0.16779150924629
  Br          2.63815905235296     -2.10432422178119      2.57368983823427
  Br          0.18411117824326     -0.18961949055172      2.35919960413170
  C           2.24167196600094      3.26344330588914     -1.12636044103585
  H           1.77662858919834      2.81206090109397     -2.00427289040920
  H           3.05635179398749      3.92035581918990     -1.41799755822129
  H           1.48135815121104      3.81134660303034     -0.56697776236022
  C           5.49489399203786      0.64526523083621      3.40277210692983
  H           6.19989316890642     -0.15718139189596      3.60606566074670
  H           5.05917566709877      0.99888259831480      4.34253713207939
  H           6.01202444784065      1.47980468661194      2.91399256306948
