25
Coordinates from ORCA-job NEB_reactant E -47.135892207230
  C           1.35438574653792      0.17241563521825     -0.00282646571612
  C           1.76810896393315      1.20937279638455      0.75882663981558
  C           0.53941551524666     -0.87983507195610      0.60397167101686
  H           1.59135872353366      0.09328495338820     -1.04771544140355
  O           2.54583583570614      2.22843093486416      0.36472903799350
  C           4.47026046318356      2.32837632488046      2.86775322031266
  C           3.37840126441160      1.69012997754246      3.27520428890303
  C           2.00178143625065      2.16316813755490      2.93470862258300
  O           1.36439368848399      1.25223356093542      2.02813477360730
  O           5.75907395106679      1.99869835573929      3.07081492762503
  H           4.40825030404425      3.25362879176454      2.30893723194205
  H           3.42091181339287      0.75695398556754      3.81462133083765
  H           2.01791210560611      3.16695555000776      2.50276789413509
  H           1.34835528024916      2.14288798839703      3.81005956754203
  Br          0.15060164264308     -2.29154458793939     -0.66741409345802
  Br          1.43755459182572     -1.72129612223806      2.15500568606422
  Br         -1.19776193828786     -0.20922314610605      1.29940972406718
  C           3.02110903138252      2.23945057620823     -0.96434793716287
  H           3.62001837967760      1.34985463104779     -1.17466393852776
  H           3.64542317901714      3.12704241436781     -1.04265361660628
  H           2.19638597515526      2.30671238805260     -1.67853730716471
  C           6.02689418579382      0.81346957709880      3.78860560787090
  H           7.11078516741822      0.72717485402465      3.83156260288866
  H           5.60824841566566     -0.06035393908402      3.28076637191131
  H           5.62179627806234      0.86821143427917      4.80307960092326
