17
Coordinates from ORCA-job NEB E -28.786292719310
  C           0.62443570713202      0.45670208500218      0.77097255685769
  C          -0.67538164952233     -0.13710820348483      0.71604918995603
  I           0.58784090167327      2.67670546959959      0.78364081540972
  H           1.16467909802318      0.20105960938673      1.67956276069788
  C          -1.15367703681391     -1.08311669249456      1.76499644785420
  C           1.41869225441064     -0.03732365815843     -0.52478628600356
  C           0.65114922927483      0.29681573041680     -1.70639891484521
  C          -0.82058810187815      0.26487875804812     -1.63087345907712
  O          -1.42591040495214     -0.04177682277608     -0.37929601607142
  Br          3.25194612627858      0.74283326763826     -0.56976495411376
  H           1.61486124218994     -1.09806011949117     -0.34891300106600
  H           1.05699241718284      1.02910997875379     -2.38541927621593
  H          -1.23625545073097     -0.51802209640775     -2.28022029250980
  H          -1.23850206726300      1.21722092316090     -1.98214140865597
  H          -0.45656211452813     -1.91633649431352      1.88197393543281
  H          -2.12764837465948     -1.47150195588366      1.48141299913482
  H          -1.23607177581719     -0.58207977899635      2.72920490321562
