17
Coordinates from ORCA-job NEB_reactant E -28.829436835380
  C           2.21617888378320     -0.15012747605555     -0.48669289916546
  C           1.51571651574205     -1.03136649298124     -1.19317277857578
  I           3.20261775750400      1.63603737221317     -1.03308989332156
  H           2.30494558367380     -0.30346824145107      0.57338207377948
  C           0.86997440463021     -2.18992642339778     -0.47446417265546
  C           4.31684936062989     -0.07636251713604     -4.02860517301124
  C           3.32678512616938     -0.86545410458610     -3.65518228157146
  C           1.90490675015169     -0.40790954118243     -3.51275694494839
  O           1.21241866444340     -1.12506824950770     -2.51240156532001
  Br          6.08384539647993     -0.70306427306179     -4.25107147432382
  H           4.20608369071848      0.97403736018941     -4.24523577038401
  H           3.49429372682142     -1.91308972079581     -3.44593993986150
  H           1.35770010620490     -0.65951315851941     -4.42996103336740
  H           1.84048837577288      0.67413732335643     -3.36598509022786
  H           1.36034395100572     -3.11733152429139     -0.76589603142181
  H          -0.17250943951577     -2.25452343792766     -0.77805101227518
  H           0.92806114578482     -2.07730689486503      0.60242398665147
