17
Coordinates from ORCA-job NEB_product E -28.843539132310
  C           2.95521217311898     -1.28712454347608     -1.51717559488995
  C           1.43856026316918     -1.41058837718873     -1.44257254687124
  I           3.51041837052634     -0.03068588687800      0.16646006426454
  H           3.43183219139333     -2.24772218144945     -1.31254236507127
  C           0.95190653061929     -2.43861539441726     -0.46026706055881
  C           3.42642399320714     -0.73085653765785     -2.84620644705004
  C           2.97053274385594      0.64554685007168     -3.16868653670681
  C           2.44060793994050      0.98254051085171     -4.33000807611606
  O           0.71134517194592     -0.74551162178340     -2.13059246817917
  Br          5.41924167044763     -0.77145227057496     -2.87410442124833
  H           3.12722523579845     -1.42819916490979     -3.63522829861539
  H           3.13120335209747      1.38624442096288     -2.39671496368836
  H           2.28179051153999      0.26318262033185     -5.11669778347888
  H           2.12960590740597      1.99191641589115     -4.53156910056559
  H           1.06412213239142     -3.42470825254007     -0.91168204524928
  H          -0.10085493672792     -2.27366347600397     -0.24611809727535
  H           1.52802674927038     -2.41900311122970      0.46150574129999
