23
Coordinates from ORCA-job R E -35.802838749210
  C          -1.42628542142144     -0.42225175670022     -2.94035076232889
  C          -0.14614944636626     -3.12513096150233     -2.53227581247481
  C          -1.42831818353916     -2.89264427971161     -2.79887683257998
  C          -2.05859506072834     -1.58969626989230     -2.76158614283171
  C          -0.46818588825380      2.35851632880444     -0.24378309634411
  C          -0.49535582075739      1.09334422390802      0.15959075708809
  H          -2.08971447033990     -3.71778233035249     -3.03586586303805
  H          -3.12786422407504     -1.57820374417001     -2.59346843069633
  C          -2.08799022633072      0.88261870211562     -2.87529408532692
  H           0.26294661468114     -4.12033330815710     -2.56993392990015
  H          -0.36788653399367     -0.37078420291230     -3.14586380680419
  H           0.52404353751969     -2.33772484593586     -2.23004058145950
  H          -1.17466079326105      3.08240779750378      0.12663190378244
  H          -1.21624705599482      0.72515348678649      0.87943161018238
  H           0.24386221380909      2.70672521518715     -0.97237611331621
  C           0.41985841821122      0.12918015131578     -0.30632163297029
  O          -1.51609315181302      1.94259395443178     -2.99217853545271
  O          -3.41599456710724      0.80043791636621     -2.65603308752522
  C          -4.10434724354377      2.03794097450777     -2.58720404003055
  H          -5.15816610409365      1.79339680078723     -2.47937542726238
  H          -3.93545014347519      2.61916160115247     -3.49613836360252
  H          -3.75644345336016      2.62015916450342     -1.73093443068830
  N           1.15969700423350     -0.67144461803590     -0.66350329642010
