17
Coordinates from ORCA-job NEB_product E -30.969633103730
  C           2.52046172778042      1.54594204239334     -0.92113273199475
  C           1.18378371998799      1.09896017590311     -1.46024965677542
  N           2.96153452381549      0.73120518703135      0.17123805738323
  H           3.25079974914789      1.46092414255890     -1.73635072798690
  F           0.46441002385504      0.41076330099010     -0.54001275393989
  C           2.33738704755911      3.09074695001745     -0.61865633649716
  C           1.27111802107192      3.32186156668705      0.41875100578400
  C           0.09370960708494      3.84797162669056      0.14135748765346
  O           0.71174181836999      1.32810386734755     -2.51669782054338
  C           3.60058764441469      3.61043706940576     -0.15491511005768
  H           2.06826012408069      3.58800682810532     -1.55694164775536
  H           1.52356425401426      3.01981760982736      1.42672511772758
  H          -0.17244727732128      4.15871000712303     -0.85585671320955
  H          -0.65521099955868      3.98381461632531      0.90166052549277
  H           3.85537454292892      1.04041031692435      0.53186213272831
  H           2.28642045453554      0.69151539542704      0.92503877408827
  N           4.60280501823306      3.98350929724242      0.24838039790249
