17
Coordinates from ORCA-job NEB_reactant E -30.956501903160
  C           1.36124029980839      0.02630613043641      0.48776161660106
  C           1.01530133288441      0.73351249390446     -0.58572718111745
  N           2.54184006612857      0.20490574866194      1.18983702424267
  H           0.67087416843039     -0.70439929323178      0.87671816643476
  F          -0.23513193016904      0.58055155657394     -1.11829001121940
  C           2.03223286525561      5.01273644419677     -0.27659426502717
  C           2.27733501796454      3.93869143761106     -1.02502997583721
  C           1.24336557387363      2.93535061355894     -1.40942600167243
  O           1.78924120736945      1.61700415257779     -1.24796750429723
  C           3.03506083642155      5.94402252996567      0.05661321283995
  H           1.04440482191483      5.23268352751108      0.10812933800528
  H           3.27393686827290      3.73501075871079     -1.39215109732890
  H           0.98247746426663      3.06138364174873     -2.47029414500005
  H           0.33422129520171      3.05109372842706     -0.81099879248296
  H           2.93832583786020     -0.64039733580404      1.57161919061168
  H           3.22091646326173      0.76830820857606      0.69781118250410
  N           3.84415781125450      6.70563565657511      0.33928924274329
