18
Coordinates from ORCA-job NEB E -42.248919722560
  C           1.04588101727912      0.19592816502124      0.46888959740597
  C           0.28450753551057     -0.27208198582835      1.53275742105118
  C           0.97622000273080      1.65872360852970      0.11724355247298
  H           2.06017874202900     -0.17374549268394      0.36189335383849
  Br          0.95997223335454     -1.95794417469905      2.30944865252037
  C          -0.02287001176452     -0.73192213984936     -1.07751940766689
  C          -1.31064708149851     -0.30447067712661     -0.74478864075804
  C          -1.91780234378482     -0.72880792901133      0.43744200712861
  O          -0.91161289278401     -0.01269679905268      1.73523014810526
  O           0.51985161366433     -0.26908658931431     -2.21641672159119
  H           0.30277215081498     -1.71759827177126     -0.74874917832704
  H          -1.67607957798935      0.57850243564818     -1.24648385334119
  H          -1.77014324106626     -1.74995917498232      0.76841336268012
  H          -2.87457678764873     -0.30451211029777      0.69962659443976
  F           1.64568932820020      2.39072746971492      1.03240033936092
  F           1.57589620402286      1.91307213497931     -1.05531614500484
  F          -0.24939099049769      2.17523595950229      0.05127951162877
  H           1.36215409942749     -0.68936442877868     -2.42535059394325
