18
Coordinates from ORCA-job NEB_product E -42.282288030300
  C           1.57756179186698     -0.96285912982534     -1.48772411442529
  C           0.84562172972028     -1.15746759525208     -0.19371018426075
  C           1.35826251365080      0.47124394032869     -1.98119273464723
  H           2.65733136972904     -1.08375319515562     -1.33468624865728
  Br          1.42910035091644     -2.78378381303394      0.71830002092275
  C           1.17092799815789     -2.03142572069946     -2.54814315516168
  C          -0.21110424966730     -1.78024445836320     -3.08681616828970
  C          -1.29586932183786     -2.34291739860884     -2.58980248184698
  O           0.00690078125399     -0.49305283987551      0.29716543467027
  O           2.17040758483957     -1.98734313339704     -3.53405561740440
  H           1.19460897521090     -3.01134498364369     -2.04031853048735
  H          -0.26184264646912     -1.09175143679680     -3.91897292553941
  H          -1.25428073717182     -3.03021420931927     -1.76004177959975
  H          -2.27163257133521     -2.13586144978266     -2.99091410145780
  F           1.93798534671267      0.70132389357618     -3.15930634899043
  F           0.07155141960288      0.80286463408911     -2.11659857367466
  F           1.89372296238168      1.34493610641359     -1.11458313178745
  H           1.85714670243819     -2.42594921065411     -4.33199935936286
