18
Coordinates from ORCA-job NEB_reactant E -42.281021341130
  C           1.68263574825228      0.06346506131949      0.00261739442335
  C           0.97970468692323     -0.99139911809478     -0.42585250906734
  C           2.15331217836962      1.10211030877802     -0.95748175586211
  H           1.93999702431970      0.20567295111727      1.03552577895359
  Br          0.40630765627852     -2.26809654331187      0.86997254135087
  C           0.17638130313876     -3.03349110054202     -4.44974545303632
  C          -0.32172615623058     -2.15172729949021     -3.59110743914680
  C          -0.15466053325029     -2.26990413278916     -2.11457684067718
  O           0.68014317037781     -1.18695722575623     -1.68819320001383
  O           0.07029712724365     -2.98194000257452     -5.78625464959650
  H           0.70777130037313     -3.91952585894712     -4.13068356516112
  H          -0.83864164808210     -1.26795728659175     -3.93708272813379
  H           0.31749545101354     -3.22367203402688     -1.85319474552478
  H          -1.12343555008999     -2.19319016983175     -1.60352926909630
  F           3.02479614454026      0.62777349893820     -1.86784032778813
  F           1.15266301118917      1.65847982803051     -1.66662909269402
  F           2.77426816476058      2.10620825624065     -0.32605051141107
  H          -0.38520907912730     -2.17404913246782     -6.05879362751851
