26
Coordinates from ORCA-job P E -36.119903157070
  C          -0.88141701499904      0.19709855112822     -2.98663411447290
  C          -0.71482538470335     -1.26445069699310     -0.38531399356981
  C          -1.35900531335474     -1.82744098156643     -1.61752591836474
  C          -1.43006312402763     -1.18149180384512     -2.76957752699257
  C           0.09898455985673      0.57283769922449     -1.85836930190117
  C          -0.53191150137328      0.23501910417498     -0.52478431078879
  H          -1.75874947780059     -2.82716342936797     -1.51913315368573
  H          -1.91478609316300     -1.63356526772142     -3.62357729180141
  C          -1.97589993212459      1.23935870643881     -3.08888133856366
  H          -1.32486786086020     -1.49806007341274      0.49153949916845
  H          -0.32548838544302      0.20616941402200     -3.93238227108881
  H           0.25462907479976     -1.75509469390074     -0.24231754171218
  H           0.33417511061817      1.63718822377638     -1.92233645116017
  H          -1.48687388524942      0.75133033556464     -0.42312375754946
  H           1.02640774974113      0.00786187378509     -1.97967398769534
  I           0.68121932469516      1.00261637362037      1.11766636768279
  C          -3.21593139472822      1.06188023302909     -2.48990736417984
  C          -4.17968410431204      2.05346851246740     -2.55944462911679
  C          -3.91556291574663      3.23614599026026     -3.22700648624097
  C          -2.68294258770599      3.42097932074733     -3.83035706468440
  C          -1.72210858939235      2.42912276398143     -3.76145688407824
  H          -3.43332730305497      0.13819414257741     -1.97238229785980
  H          -5.13978726249488      1.90019261534846     -2.08855213658645
  H          -4.66706891538980      4.00974753076059     -3.27933484340551
  H          -2.46968325099204      4.33986736454777     -4.35653392714107
  H          -0.76184152279515      2.57837819135278     -4.23578927421145
