26
Coordinates from ORCA-job TS E -36.008907719650
  C           0.18569756596991     -0.56830143582607     -0.35313430147931
  C           1.70095660736591     -2.66930197853563      0.86827606841856
  C           0.35892406940199     -2.76484580259847      0.67416351927325
  C          -0.38671226145223     -1.74662660105380      0.05417535229682
  C           0.87509789013595      0.11081142166094      1.68118183949417
  C           1.74911741210722     -0.78614938271478      2.19769475740443
  H          -0.19346202145551     -3.55027122709770      1.17334772466058
  H          -1.46370390638212     -1.83534202293583      0.07291391292315
  C          -0.56656039986906      0.57383841946341     -0.85771494712442
  H           2.22210164800240     -3.40860700774140      1.45518354848401
  H           1.23101496940094     -0.56765290011493     -0.62755757281405
  H           2.31731282629358     -2.10424138333953      0.19317135501815
  H          -0.14603198510794      0.10576694493866      2.02219581978073
  H           1.49083720155573     -1.47001104808884      2.98452893964747
  H           1.21205551056962      1.01141730926408      1.19965812170646
  I           3.83807265403641     -0.41092611424347      2.10424263366494
  C          -1.89059917680105      0.81993173492543     -0.49096711948957
  C          -2.56665786996889      1.91951093775754     -0.98286161387586
  C          -1.93531363074155      2.80062411198505     -1.84562972257400
  C          -0.61718359856830      2.57757615869582     -2.20845600540006
  C           0.06113851814744      1.48055759638107     -1.71448324650734
  H          -2.39217591562932      0.15175503113082      0.19329574667915
  H          -3.59144982768889      2.09441659679295     -0.68870269869495
  H          -2.46613677975668      3.65967102773289     -2.22805460442865
  H          -0.11647502056726      3.26387843794187     -2.87567335780817
  H           1.09013552100172      1.31252117561993     -2.00079414925549
