19
Coordinates from ORCA-job NEB E -34.548197010610
  C           0.57828960905431      1.17154489177493     -0.88664494382225
  C          -0.25009628700663      1.04227053824544      0.23202452757812
  Cl         -0.15303243239503      1.51748062538987     -2.41608973282118
  H           1.55003378759150      1.63010335802425     -0.76075640431269
  O           0.38633626994087      1.21258329144810      1.42430369734159
  C           0.92878465843378     -0.86644427195090     -1.03904451742240
  C          -0.36938716578381     -1.34073833679711     -1.19596224505836
  C          -1.25630216487874     -1.20622299967121     -0.10389590350712
  O          -1.39057181417772      0.47003898252054      0.16587344900316
  C           1.83636598099084     -0.91221595409574     -2.12788242168385
  H           1.41213137974723     -0.94227506327987     -0.06909915017570
  H          -0.77478289456081     -1.41193671082034     -2.19419173702669
  H          -0.88795695372976     -1.49799594459278      0.87443572546902
  H          -2.29432835083204     -1.46081348374007     -0.26700698048560
  C          -0.34190892373303      0.93421182316669      2.61081775432660
  H          -0.24327315309547      1.79805603902067      3.26809144066821
  H           0.08738494999145      0.05619057745988      3.09861697442476
  H          -1.39497333561420      0.75717713098806      2.38600181795744
  N           2.57728684005729     -0.95101449309041     -2.99959135045305
