19
Coordinates from ORCA-job NEB_product E -34.604878752710
  C           3.34779206516881     -2.60570971833268      0.22241689976969
  C           2.36116265137449     -2.75600734790928      1.37695359006092
  Cl          3.80043508302552     -0.90647761060423     -0.05211227140335
  H           4.26268599991088     -3.15428491387789      0.46593409637703
  O           1.83012423506336     -1.60877744223831      1.75923205965870
  C           2.68892709845847     -3.21648313236954     -1.03312024883593
  C           1.40621236015047     -2.50308112156027     -1.37865744718325
  C           0.22785926260915     -3.09436469498908     -1.38048172024500
  O           2.09175152300284     -3.83135326387288      1.84250663342558
  C           3.59972312007190     -3.14906011135610     -2.15638823274089
  H           2.48297956836561     -4.27277308477572     -0.81606899230759
  H           1.51518068002795     -1.45545186873527     -1.62026225691095
  H           0.11111236294664     -4.13890877946429     -1.14013131496501
  H          -0.67161600949105     -2.55575960828543     -1.62372403385469
  C           0.86521721155696     -1.67804096101312      2.80277330165600
  H           0.56027980814350     -0.65394950188660      2.99928174692461
  H           1.30453506376300     -2.12855220169715      3.69448101606320
  H           0.01261990793611     -2.28130340741896      2.48571334693833
  N           4.30521800791538     -3.08886122961317     -3.05204617242739
