19
Coordinates from ORCA-job NEB_reactant E -34.575497263260
  C           1.91004592082147     -0.63198226573306     -0.23043092582540
  C           1.53885384473982     -1.39387800597576      0.80345525121497
  Cl          1.67835764396510     -0.94458525748648     -1.91142814297463
  H           2.39179532375087      0.30704385025194     -0.02475487216903
  O           1.79595588242048     -0.87800212816458      2.03309767098514
  C           2.50784424136515     -4.17484780399107     -2.01999945287261
  C           2.22842515541262     -3.86035584140151     -0.75733977595958
  C           0.87489553148549     -3.43709580151930     -0.28258597431469
  O           0.93241471407486     -2.60263422966678      0.85970851117744
  C           3.78753892933461     -4.60387146612243     -2.42093678041847
  H           1.76446134794139     -4.11505560374938     -2.80394219607130
  H           2.99401853929915     -3.91632797103449      0.00571012164656
  H           0.32529622738423     -4.31787049171763      0.07436587551440
  H           0.29719421514318     -2.97022535818395     -1.08645425145246
  C           1.43473031087901     -1.65586175045093      3.16065461203061
  H           1.73239693439955     -1.06095444945796      4.02125167957333
  H           1.96161748239108     -2.61299661054943      3.17076993785736
  H           0.35823937619306     -1.83869464987061      3.18780103749970
  N           4.82471837899891     -4.96170416517657     -2.75354232544134
