19
Coordinates from ORCA-job NEB E -41.303882601980
  C          -0.70930384895727      0.55131775722249      0.42135017124508
  C          -0.54931795181326     -0.47383142473423     -0.63510900424930
  N          -0.45337348168583      1.90680009971768     -0.04138807625210
  H          -1.72685044407322      0.53303375786386      0.82006792184073
  C          -1.67142127898684     -1.26734519942128     -1.20725031050079
  C           0.30681723582771      0.17904643097075      1.52465778357104
  C           1.55163280828943     -0.23352284936844      0.96867191818353
  C           1.77162393204511     -0.44296625899263     -0.47423218728115
  O           0.63570231578805     -0.68628134760168     -1.25076724646705
  I           0.59755528310844      1.97586327262115      2.95926390901058
  H          -0.14774702297475     -0.49030109981804      2.24599154938788
  H           2.45273836633071     -0.16006502615810      1.55580312384257
  H           2.39901838594514     -1.33139123598858     -0.62428609398923
  H           2.33672524165136      0.39852502885644     -0.90644424901825
  H          -1.11027740588688      2.17066166926097     -0.76514935478339
  H           0.48966307867531      2.02461624334699     -0.39210354481967
  F          -1.68537842156258     -1.26513416235301     -2.55071270387329
  F          -1.62184144628880     -2.57204457850225     -0.84641870727424
  F          -2.86596534543183     -0.81698107692209     -0.80194489857296
