19
Coordinates from ORCA-job NEB_reactant E -41.361689307900
  C           1.76559760047808     -0.05767908712047     -0.25556877509768
  C           2.10407936432511     -0.97129484815184      0.67078326965308
  N           2.42322982074312      1.11893914408918     -0.44067235751647
  H           0.90250460035709     -0.23305480712753     -0.87969970474917
  C           1.26691215844189     -2.19944618618068      0.87501045361165
  C           4.88960687045045     -1.52106617466024      4.39476971811937
  C           3.99861907935253     -1.83129749262782      3.47487147386600
  C           3.08828550890530     -0.81593484703539      2.85231520232640
  O           3.24934484741456     -0.84570892092452      1.43222281255899
  I           6.16115627277571     -2.93352698967979      5.28667857395006
  H           5.02707227986105     -0.52429256146439      4.77930354595575
  H           3.88995196226535     -2.83885665010631      3.10104791918357
  H           3.33295397273557      0.19487019031742      3.20267930261830
  H           2.05249719677741     -1.03629061750263      3.13306648648227
  H           2.35861136646755      1.55722830152335     -1.34294545494142
  H           3.31413580237806      1.19434676398265      0.02536252274782
  F           0.68313062538634     -2.61576823152853     -0.26079967959266
  F           1.96858047804739     -3.23074168084805      1.35798188120395
  F           0.24403019283742     -2.01072530495439      1.75039280962022
