21
Coordinates from ORCA-job NEB E -46.061402527320
  C          -0.90295910524707     -0.43189719026897      0.58868260237563
  C           0.04818014524542     -0.63795414052222      1.59988766542389
  C          -1.12581668890157     -1.54618400261268     -0.40720167384465
  H          -1.82843316532116      0.07309309717676      0.85230515251468
  O           0.00398055988663      0.08661224033874      2.75117310106463
  C           0.17705257654875      0.93524300622423     -0.36821235029207
  C           1.38246093135782      0.28439578263248     -0.63650770495467
  C           2.15195147582977     -0.13969839183520      0.47938248780591
  O           1.17266511073975     -1.18108137425403      1.31410428357347
  C          -0.64890193995930      1.41464744547328     -1.53349922993074
  H           0.15922787926984      1.67303426986094      0.42943141411802
  H           1.49673694993410     -0.23116223675149     -1.57796414009408
  H           2.33136291497156      0.59265425495729      1.26113986230805
  H           3.01416775047997     -0.75982593348261      0.27388995101780
  F          -2.17207974221423     -1.24249692538513     -1.23221097213222
  H          -1.40424567482808     -2.46847638251704      0.11744404882618
  H          -0.24921365518905     -1.73564555989377     -1.03339538832744
  H          -0.86244111746241      0.48815251679526      2.88799956145925
  F          -0.64196855282292      0.58780937546842     -2.57918579585544
  F          -1.92804586745481      1.64326003459422     -1.20309639482739
  F          -0.17368078486302      2.59552011400153     -1.98416648022884
