16
Coordinates from ORCA-job NEB E -37.475084794270
  C           0.00072974472202     -1.04427880698962      0.97858705429100
  C          -1.31983613233029     -0.56302902060622      1.03190303424071
  F           0.87874919739880     -0.49561542985654      1.83488938847391
  H           0.19364436119788     -2.10718880527639      0.85377774646165
  Cl         -2.49250093759714     -1.58718065628062      0.20685732491896
  C           0.53198456901521     -0.18629324490866     -0.67005828850935
  C           0.23908081624547      1.15945337961705     -0.43671260423571
  C          -1.11830709498903      1.51708749321873     -0.23159816681826
  O          -1.56420187957538      0.67898396075940      1.11245198487426
  N           1.94200149339135     -0.56947167582151     -0.78234379007475
  H          -0.08647142754777     -0.79020653994375     -1.32903743481485
  H           1.02889945863353      1.77816953537586     -0.03405886382451
  H          -1.84360331646417      1.12291225506200     -0.93911234623942
  H          -1.31694318358598      2.53997146858452      0.06084908359904
  O           2.77804322901266      0.22918921822180     -0.45249380887835
  O           2.14873110247284     -1.68250313115603     -1.20390031346435
