16
Coordinates from ORCA-job NEB_reactant E -37.503895875500
  C           2.21870140405190     -0.44483724029943     -0.67542082495860
  C           1.34045158176470     -0.27154685994834     -1.65956549614992
  F           3.19170594476031      0.44609613987947     -0.37899313619237
  H           2.23357562326128     -1.31033336403162     -0.03713936028338
  Cl          0.16661484493589     -1.50411417695106     -1.91899306515184
  C           3.82291891893039      0.43217878660262     -3.57085145556745
  C           3.41134806775453      1.56975216340933     -3.02586228899271
  C           2.03815396125513      1.84225614357904     -2.51612498761583
  O           1.16295738731366      0.72916949789132     -2.54415629079684
  N           5.17474752875893      0.28175835474031     -4.02911046344595
  H           3.21919422452111     -0.45023811203062     -3.71736214086669
  H           4.11395871190210      2.38848003776726     -2.93257368732606
  H           1.55871817697771      2.58298303675779     -3.16651177299415
  H           2.09993423751764      2.26931456032139     -1.50743930946053
  O           5.91931045510005      1.23303215605876     -3.94742898225684
  O           5.47390893119465     -0.80435112374622     -4.47356673794083
