16
Coordinates from ORCA-job NEB_product E -37.516642873580
  C           3.03824138061731     -0.51698314550216     -1.54083910112654
  C           1.53329441377647     -0.53125755932281     -1.36865664517403
  F           3.60513417117138     -0.05137954706946     -0.38612312556130
  H           3.41716517675070     -1.53769754989851     -1.70146552971425
  Cl          0.75634692639497     -1.30091423354026     -2.75293361553378
  C           3.44451066285675      0.38384167915250     -2.71979596716242
  C           3.18188839771965      1.83333510331989     -2.45193312581536
  C           2.38085603493177      2.56909666132759     -3.19851025770443
  O           0.90443139024257     -0.10721981127043     -0.46727098702408
  N           4.91465147011036      0.15758158749291     -2.99906191918411
  H           2.91468394388553      0.03985680861576     -3.61546716200234
  H           3.69136710444023      2.24367876349079     -1.59254928253181
  H           1.86916538560496      2.16818661328686     -4.05847923935224
  H           2.20545209646704      3.60636360483230     -2.97720122675705
  O           5.58068055223036      1.12655898769732     -3.22806102852485
  O           5.28433089279996     -0.98714796261228     -3.00105178683140
