17
Coordinates from ORCA-job NEB E -34.239423827760
  C           1.06421098944673     -0.16738541006700      0.41745654460996
  C           0.30959263031295     -1.33827642183953      0.52203903165480
  C           0.79763317043954      0.92252020446452      1.43153272470522
  H           2.11821054941089     -0.27703900942287      0.18510632399173
  Cl          0.96510069102393     -2.77245525441415     -0.26361731726741
  C           0.25388410298728      0.51948210544129     -1.22696800644517
  C          -1.10461233387705      0.54335478999346     -0.91971199403189
  C          -1.72928939260896     -0.70064693152057     -0.62500808798101
  O          -0.95379966058030     -1.30169663256662      0.68670231369093
  Cl          1.05515414964158      2.02661731083575     -1.55180340529780
  H           0.63800746910278     -0.26468709900479     -1.87149573217843
  H          -1.53060872907183      1.45108501830354     -0.52071112052377
  H          -1.55199865853287     -1.51090132806988     -1.32748791575590
  H          -2.75627204506165     -0.65549905918053     -0.28544111429890
  F           1.62112892544763      0.73017208763760      2.51335181295693
  H          -0.23123110770804      0.88096021642671      1.80050503074182
  H           1.03488924962740      1.91439541298307      1.03555091142889
