17
Coordinates from ORCA-job NEB_product E -34.284477690330
  C           1.74803414310685      0.80217067069065     -1.59728697809708
  C           1.17925192770562     -0.49457926455908     -1.07271538706719
  C           1.47556776200140      1.94044983638488     -0.61068901617474
  H           2.83146655243144      0.70012402685950     -1.71491829045712
  Cl          1.92556276406587     -1.89331777006440     -1.84168091805416
  C           1.12379906759673      1.04137855057136     -2.98666767388317
  C          -0.35790880559899      1.21428983969624     -2.94187142312611
  C          -1.19687103481535      0.40855582745240     -3.56634737431988
  O           0.31235381672479     -0.63921146708421     -0.28178131136002
  Cl          1.86000632372012      2.51599171489281     -3.71180487520215
  H           1.39712254662856      0.21564117094936     -3.64886739829229
  H          -0.71490784615963      2.06169464378504     -2.37562668887074
  H          -0.85402053452904     -0.43435251905578     -4.14357988935974
  H          -2.26118140385239      0.55598800477887     -3.51882508698597
  F           2.37739006920684      1.86856211074083      0.41734363992697
  H           0.47903073638643      1.85986913676515     -0.16685057155095
  H           1.61810391538074      2.91314548719639     -1.09063075712568
