17
Coordinates from ORCA-job NEB_reactant E -34.264669327370
  C           1.82945510660110     -0.01945312037909     -0.03059723488073
  C           1.04604939802799     -0.28957400004192     -1.07104624560653
  C           2.19547649161375      1.37447284064243      0.36544666893896
  H           2.24674023830547     -0.81740633639372      0.55916126153455
  Cl          0.68664725762803     -1.94201248240884     -1.47406685041132
  C          -0.14442557897515      2.02859877071685     -4.90564166174299
  C          -0.53232349046138      1.62895957776539     -3.70655382433806
  C          -0.07217838244467      0.34958280186418     -3.08373723045092
  O           0.45630680566653      0.66864953760635     -1.79963358881743
  Cl         -0.69678686568770      3.48393625822992     -5.62202293691465
  H           0.53017630277893      1.46484396381397     -5.53247027527253
  H          -1.20072533380958      2.22512541138177     -3.10427851095520
  H           0.69142750786490     -0.13668597459181     -3.70119478548408
  H          -0.92397599556119     -0.33500268872078     -2.96685326549311
  F           3.55410273219330      1.46809819428217      0.56791711673468
  H           1.72778102646387      1.65722950957268      1.31654623023464
  H           1.93115277979582      2.09233773666047     -0.41527486707530
