18
Coordinates from ORCA-job NEB E -32.652485390360
  C          -0.04214081819376     -1.00674944469952     -0.82160309102192
  C          -0.78687083888253      0.11445950422290     -1.20048590527485
  H          -0.56154698714419     -1.78485888609183     -0.28472926449087
  H           0.72022910272363     -1.35955588914323     -1.50196003818234
  N          -0.32873609476167      0.95941324498889     -2.18547510696590
  C           0.84146817554677     -0.20926543134747      0.72454887673761
  C          -0.20515752895884      0.25726447089263      1.52263898042825
  C          -1.06594200701500      1.23494468477960      0.92778946913555
  O          -1.69206626306585      0.59564510682595     -0.38959283783403
  N           1.62597252732306     -1.30858814705359      1.24234419436479
  H           1.47147477518588      0.49298531994512      0.18750895492038
  H          -0.60795427523403     -0.42103501201548      2.25954595432383
  H          -0.56282796274537      2.11280521027165      0.52397483619931
  H          -1.94723232754767      1.49886922254181      1.50042004609888
  H          -0.93399141100303      1.72744595101365     -2.42722181893546
  H           0.20851950560384      0.56601351398354     -2.93882554380057
  O           1.06666180332319     -2.13982321802454      1.91879033143583
  O           2.80014062484557     -1.32997020109007      0.94233196286153
