18
Coordinates from ORCA-job NEB_reactant E -32.669897939400
  C           1.32389186738123     -0.03356751750627      0.29847128270806
  C           1.53632969705871      1.25071272950839      0.56368462649577
  H           1.02866602814228     -0.70912365145477      1.07710564997869
  H           1.41782428458304     -0.42348484497019     -0.69714214107962
  N           2.02868981158340      2.18528933465083     -0.34734459709574
  C           4.08793006791930      1.38876704309667      4.07448010657495
  C           3.38421812977671      1.30900431186588      2.95150905798153
  C           2.41487932758812      2.33729147740864      2.47128594942611
  O           1.30126398090568      1.75640970748279      1.82405353149398
  N           5.01332703829409      0.36099316177581      4.44726765560112
  H           4.03779124615529      2.19857871350436      4.78610286590256
  H           3.50591933209760      0.44065742070642      2.31350512676373
  H           2.94816312000842      3.01477698364063      1.78614556939334
  H           2.01028929922286      2.92002643418922      3.30252448528551
  H           1.61594978561949      3.10378901357517     -0.25536731284088
  H           2.01902046806103      1.85611688788305     -1.30047338677034
  O           5.16110910526120     -0.58305069815030      3.70201549642618
  O           5.59413741034156      0.51331349279369      5.50117603375503
