22
Coordinates from ORCA-job NEB E -36.511369554700
  C           0.34237184465381      0.85571652730984      0.48685289753109
  C           0.68539659028547     -0.49283551050246      0.61010794427108
  O           1.08568554876862      1.65864373303269     -0.33746755489859
  H          -0.06836403647540      1.32997527176035      1.37351292954600
  O           0.16214783471906     -1.09479310331461      1.72071665968172
  C          -1.31716836363791      0.51296471118100     -0.76456306795610
  C          -1.22429116016905     -0.78217011518128     -1.23627903692399
  C           0.03007378694638     -1.17299081538818     -1.74592496987970
  O           1.07665791622840     -1.20658911325016     -0.37150238085893
  I          -3.05009847823582      1.09049581824495      0.30942888656248
  H          -0.95125086958452      1.32019088969969     -1.38026783331664
  H          -1.86071463818963     -1.54480074483568     -0.80677032623579
  H           0.57797057485961     -0.44047757923972     -2.32639439471517
  H           0.14925481207402     -2.18926273195420     -2.09425335086564
  C           0.86751941558213      3.04120240884236     -0.16575756668234
  H          -0.16666131978022      3.32256045906535     -0.39271477430238
  H           1.53809637957485      3.54314536712026     -0.86040271222467
  H           1.10094740176006      3.35317635222488      0.85725089872618
  C           0.24352895551690     -2.50783331902223      1.76263401246389
  H           1.27737419137961     -2.83857245068702      1.63695416482105
  H          -0.37001398518916     -2.96296963213533      0.98173657574523
  H          -0.12846240108721     -2.79477642297048      2.74310299951121
