22
Coordinates from ORCA-job NEB_product E -36.577241113140
  C           0.59901922844417      0.20325079341406     -1.24739421905536
  C           1.66434278512305     -0.84382481642610     -0.90001059661745
  O           1.14290731895548      1.46386904476996     -1.50946845282032
  H          -0.12527288869234      0.24173930584600     -0.41557730389811
  O           1.14455550785844     -1.76490207303931     -0.08716286070421
  C          -0.07667579426888     -0.27885957299316     -2.52629448465015
  C          -0.75109283549455     -1.59073416751205     -2.37607295112778
  C          -0.54825359822103     -2.61109582457583     -3.19030845327306
  O           2.78682038602936     -0.84846363892578     -1.32242459527578
  I          -1.53837356113679      1.22762139772959     -3.09842620969049
  H           0.65418357107055     -0.28021247442160     -3.33420686289481
  H          -1.44222282303040     -1.66837240047830     -1.54706586785875
  H           0.13181321460816     -2.54595050943936     -4.02398091246445
  H          -1.05480651475112     -3.55092638419501     -3.05607932239219
  C           1.70693726182672      2.10377597503739     -0.39024354920131
  H           2.00484747489573      3.09277457901948     -0.73064216969186
  H           2.58495717732698      1.56463200964497     -0.02118166672208
  H           0.97345405729514      2.19938345169323      0.41963766415208
  C           1.96646911099139     -2.87016675822822      0.28022265260167
  H           2.95315433399698     -2.76543176844847     -0.17354671436488
  H           1.48338044244489     -3.78172797505127     -0.07053876423660
  H           2.04905614472807     -2.88557819342021      1.36646564018587
