29
Coordinates from ORCA-job P E -40.196877625060
  C          -1.26775506241084      0.33337871918076     -2.39065373675093
  C          -0.02493432533203     -1.72100283079400     -1.06217618644184
  C          -1.36613596886669     -1.98066910422691     -1.66878012527417
  C          -1.96911307446404     -0.99138560528283     -2.30782799756027
  C          -0.76406391046297      0.73056091979304     -0.98474170097315
  C          -0.05383265446271     -0.41724458654733     -0.24273761654761
  H          -1.80401149206615     -2.96143242904829     -1.56983600341779
  H          -2.93436323715629     -1.09551159618146     -2.77760954897088
  C          -2.13742022785295      1.42549290976485     -2.95187853016826
  H           0.29338226448338     -2.54440643520424     -0.42357615545243
  H          -0.38793289000252      0.21359044181034     -3.03673856890088
  H           0.71456683231834     -1.61391514772678     -1.86352235616514
  H          -1.62353716795383      1.06251013713240     -0.40118582830837
  H          -0.59063074789311     -0.62800026683625      0.68753290262004
  H          -0.09257959721780      1.58580894489138     -1.08764817416512
  C           1.36668198040225     -0.00443807229700      0.13396746773822
  C          -3.41170517652331      1.64148682043821     -2.44005290306123
  C          -4.21206135881501      2.65082690717842     -2.94264796237072
  C          -3.74793778998475      3.46252743518218     -3.96403457491680
  C          -2.48004274000024      3.25748875377755     -4.47888936060235
  C          -1.68152712802681      2.24555254969625     -3.97486773471499
  H          -3.77998534957167      1.01023877698762     -1.64366154322597
  H          -5.20132954211133      2.80531157228248     -2.53665482417248
  H          -4.37273085697669      4.25091801987709     -4.35714143485536
  H          -2.11138725505071      3.88631661984305     -5.27629295632029
  H          -0.69283862686043      2.08957145722045     -4.38405229427544
  F           1.97012454157065     -0.97820964967631      0.89406470918913
  H           1.37122690263428      0.90802727008112      0.73976724927108
  H           1.99386365865398      0.13286746868420     -0.75369421120601
