29
Coordinates from ORCA-job R E -40.108475427450
  C          -1.31258774774335     -0.49627106422922     -2.77049753261814
  C          -0.44762363188053     -3.36389466235165     -2.40376675421682
  C          -1.28368399847792     -2.68923358364373     -1.61922868977809
  C          -1.82844033895126     -1.37585396021266     -1.90019823927177
  C          -1.73969886911279      1.47514904907862      0.43587415328263
  C          -0.52467983446235      0.99797535711073      0.24536793127482
  H          -1.62134604679028     -3.14154282480749     -0.69528847983334
  H          -2.69985610417341     -1.10627422108427     -1.31811134600280
  C          -1.82257583825913      0.83104407387785     -3.05243798741763
  H          -0.08013871695448     -4.33869333538006     -2.13198009005346
  H          -0.39764192147000     -0.74965332369750     -3.28952854667849
  H          -0.10654565431670     -2.97237232746689     -3.34628617889411
  H          -2.45239032206296      0.96983085973534      1.06297307649694
  H          -0.20404465908119      0.07036114849108      0.69690003319523
  H          -2.06978594071948      2.39002949645821     -0.02781780868840
  C           0.51123713470719      1.67814344077983     -0.58815524155152
  C          -3.08060782619982      1.27198665779295     -2.63240838660044
  C          -3.50861524533671      2.55603420631822     -2.90609118135955
  C          -2.69399733749767      3.43441180360860     -3.60330096907375
  C          -1.44779497197238      3.01110642907853     -4.03517338995403
  C          -1.02033728478261      1.72525108775244     -3.76793437706643
  H          -3.73342652571123      0.60045784492300     -2.09592671413870
  H          -4.48587253073147      2.87685735613787     -2.57407412403196
  H          -3.03259489115809      4.43828471332583     -3.81342134663082
  H          -0.80631854597769      3.68695142146668     -4.58286388786743
  H          -0.04527937999646      1.40076401880614     -4.10313143364167
  F           1.24015984218432      0.75953380140756     -1.30888600379917
  H           1.23534339142372      2.20806686105694      0.04524934806593
  H           0.06343379550474      2.36923967566704     -1.30771583314703
