22
Coordinates from ORCA-job NEB_product E -39.158701664020
  C           2.28148263185247     -0.80871288143201     -2.21521353257462
  C           1.06274197870297     -1.73843633831780     -2.30215531445565
  Br          1.89816254098482      0.47086282395201     -0.78101026857207
  H           3.17774229474601     -1.34917027526437     -1.90581880362282
  C           1.08027871420710     -2.86972899033210     -1.31634475425787
  C           2.49999557676902     -0.05107139649526     -3.51720709136290
  C           3.71147546561500      0.83473231653837     -3.47844207819562
  C           3.68762953006330      2.11188965250511     -3.80787839302786
  O           0.19708328669386     -1.53046832909437     -3.10778483208933
  N           2.71937067345521     -1.05671466060795     -4.60581733908814
  H           1.60859428536107      0.52130549979020     -3.79480589467231
  H           4.62470959717520      0.34980426355111     -3.15961182743001
  H           2.78330880015619      2.60138483020512     -4.12817881024846
  H           4.57416200202005      2.71917302401252     -3.76306066031958
  C          -0.26153246916423     -3.58550323459633     -1.24049462849659
  H           1.38058365157462     -2.49312448204377     -0.33540684064096
  H           1.85912623109972     -3.56033646699858     -1.65667986415559
  H          -1.03009564397090     -2.90870819310851     -0.87563073144271
  H          -0.19726056915911     -4.43781462285467     -0.56998701258098
  H          -0.55520202884179     -3.93326148850858     -2.22728902283352
  O           3.03853206499572     -2.17085247539695     -4.26502770452628
  O           2.59601138566370     -0.66834857550317     -5.73415459540612
