14
Coordinates from ORCA-job NEB_product E -29.252992117930
  C           3.08827555858320      1.17347646002346      1.01017326747615
  C           1.60649079281883      1.04251855762937      0.83609196044405
  Br          3.95772620344115     -0.26331425326457      0.00320384718656
  H           3.44752310384903      2.11435253277024      0.58401631804168
  I           0.58019144708267      2.86733365745083      1.42031857764060
  C           3.43087205057864      1.09942837763123      2.50074632927949
  C           2.97468687712884     -0.16609403583831      3.14022719729773
  C           2.14952333828329     -0.19266969766988      4.17054607311093
  O           0.98731171021624      0.11265522622461      0.46931997119819
  Br          5.39105805239897      1.28893218059670      2.70186745454039
  H           3.01233185127896      1.97176069646609      3.01106059000314
  H           3.36929748936527     -1.07685665162665      2.71089355058327
  H           1.75766473699854      0.70815925409686      4.61538578267970
  H           1.83214678797635     -1.12188230448998      4.60904908051810
