14
Coordinates from ORCA-job NEB_reactant E -29.238481134310
  C           2.25721213531310      0.74425044904954      0.41357594661518
  C           1.51150817131810      1.26670301280732      1.37739283233415
  Br          3.29727058059756     -0.84575130369030      0.48570521629726
  H           2.31398209177219      1.21651397178368     -0.55105580247881
  I           0.46395023289078      3.05847477913811      0.92484194138395
  C           3.91417858577440      1.47662811082956      3.40872832932791
  C           3.40435467397865      0.26351308623661      3.53144070806466
  C           1.95081238573988     -0.05259060582789      3.33881693084313
  O           1.22781746559621      0.95109936865675      2.64240450055215
  Br          5.75047828274882      1.83677140929530      3.65425137654338
  H           3.34123902870827      2.35759927713937      3.16326031372261
  H           4.02605638017961     -0.58185356339168      3.78521716944874
  H           1.45224908048026     -0.10401557513673      4.31374872948706
  H           1.83759090490217     -1.02544241688964      2.84877180785862
