16
Coordinates from ORCA-job NEB E -29.541257809470
  C           1.17055398854636      0.53783516029408     -0.11925125732586
  C           0.28948225793770      1.21727656834850      0.74659590940145
  N           1.07832322361575      0.68736331937827     -1.48890383221034
  H           2.16852673843087      0.32578810262835      0.24626766822293
  Cl          0.75740525933703      1.14116433834564      2.46778131901464
  C           0.23354898013435     -1.24703634979731      0.18733658896610
  C          -1.07084469416698     -0.97681810708569     -0.20290791139904
  C          -1.84296909545593     -0.12430460553366      0.59153020195090
  O          -0.91696388933340      1.40838278779263      0.48211081024684
  I           1.38537954975964     -2.56582301508646     -1.00341474566124
  H           0.47498751049498     -1.35529232071852      1.23534962979838
  H          -1.33989360434678     -1.10671928769534     -1.24126789615121
  H          -1.76935661999708     -0.20659161305642      1.66823465603748
  H          -2.81107809959045      0.18579225462063      0.22937129108021
  H           1.92746327113898      0.88983160334276     -1.98718726298878
  H           0.26543522349496      1.18915116422254     -1.81164516898247
