16
Coordinates from ORCA-job NEB_product E -29.581800820510
  C           1.73060582647685     -1.98641421835519      0.06231579618437
  C           1.08507328304479     -0.78991474085511      0.74306527007664
  N           1.61449980775032     -1.93255712329659     -1.37010158799413
  H           2.79336354000791     -2.01338023287725      0.32948921371658
  Cl          1.46724438276512     -0.68689132101850      2.46307216378048
  C           1.05403514144712     -3.24845494034552      0.62652634881489
  C          -0.42383064809456     -3.24032696107631      0.47111980210509
  C          -1.25750053317304     -3.36133899520147      1.48840783662566
  O           0.38248668991982      0.01615211924192      0.23261999249997
  I           1.87964232688407     -4.96108763253206     -0.42730185699868
  H           1.33332161453445     -3.38334337257770      1.67106054789342
  H          -0.79356946634127     -3.14132138127228     -0.53992447901518
  H          -0.90665903276198     -3.47644190061127      2.50124973620477
  H          -2.32420381835833     -3.34653683817752      1.34971354091106
  H           2.20220352654690     -1.20988109520997     -1.76663071806971
  H           0.65848735935182     -1.75216136583516     -1.65608160673523
