18
Coordinates from ORCA-job NEB E -41.810126488460
  C           0.32211318676947      0.84307913469055     -0.40189831404241
  C          -0.54665671576785      1.99324940732504     -0.38185056258412
  I          -0.38182980031116     -4.28157139927580     -1.47099652993589
  H           0.96702821310828      0.67074337380250     -1.24973017976413
  C          -0.34948933200303      2.86929305647131     -1.52200141885382
  C           0.41816135022918     -0.03467989975497      0.77275061239213
  C          -0.55235338287502     -0.88352602730913     -0.02052041221708
  C          -1.88883265786570     -0.78453303498928      0.08223077342410
  O          -1.36861681791830      2.23090308034163      0.49149484309498
  C           1.75016381682887     -0.67703817182359      1.10045267364088
  H          -0.03442556400309      0.39502534901311      1.66776118936587
  H          -0.09681452123692     -1.65877928442783     -0.62578274164109
  H          -2.36034371714291      0.03649572841227      0.60077648960671
  H          -2.53100043499079     -1.50989360597951     -0.38663653679414
  N          -0.20491211937206      3.56456037205333     -2.41924263259263
  Cl          2.81445900835608      0.56151754803718      1.81740481004892
  Cl          1.49455788739857     -1.98427953504845      2.28124493012749
  Cl          2.54879160079635     -1.35056609153835     -0.33545699327578
