18
Coordinates from ORCA-job NEB_reactant E -41.884356109220
  C           1.86580679828057     -0.26506156845177      0.41582718697831
  C           1.44118236270881      0.83887062829746      1.04578515190460
  I           1.85717381133677     -2.28237894900201      0.99114099996409
  H           2.26855076534619     -0.14478403180839     -0.57619809774387
  C           1.58381187174492      2.03501613788799      0.27037536878327
  C           2.55904168629959     -1.29555434728049      4.38744720093068
  C           2.23097115428907     -0.15049066664780      3.81094681121435
  C           0.86036588065570      0.15374544058696      3.28717690861766
  O           0.88567285552150      1.10888815136726      2.24614761955965
  C           3.90059195770097     -1.63960827317981      4.92181460459261
  H           1.83712573004180     -2.09271075205669      4.50095601814286
  H           2.95175013093203      0.64742168380600      3.69637439115008
  H           0.27837039145273      0.65099830833193      4.07221861703906
  H           0.32805560868628     -0.75598269130454      2.99169214484567
  N           1.70441308702322      2.98074827984401     -0.36208142928668
  Cl          3.76129236346599     -2.02011429055699      6.66496489907398
  Cl          4.50093810727493     -3.09966298315494      4.07800761550601
  Cl          5.09908543723893     -0.35454007667818      4.72820398872766
