18
Coordinates from ORCA-job NEB_product E -35.986141896030
  C           1.63101943971726     -0.54163307093329      2.36776610994477
  C           1.25714266795647      0.55387373766058      1.38379052373658
  N           1.43590479292505     -1.85437563089254      1.81962871639419
  H           2.68576940832777     -0.42339458153260      2.64989581877835
  I           1.87026555508775      2.54021261378963      2.01457617949923
  C           0.78356318971693     -0.37535467814966      3.65471071918224
  C          -0.68376718682921     -0.52175403179268      3.40618615899501
  C          -1.51881020238487      0.50046901333188      3.40399828172386
  O           0.69993850277362      0.40977841767062      0.35387404491165
  N           1.28238903297273     -1.41476974526445      4.61853411099114
  H           1.01256326654881      0.59492316107966      4.10977475271857
  H          -1.02752876685797     -1.52995204763767      3.22730971010101
  H          -1.19240384971627      1.50995845801472      3.59723894581715
  H          -2.56738175510908      0.36963349587508      3.20466590901038
  H           2.12427957255665     -2.07824572002918      1.11270157520086
  H           0.51215697288350     -1.96058401469414      1.41580652807442
  O           0.48233504043124     -2.17846053920478      5.08208185745344
  O           2.45966431899963     -1.37902483729118      4.86456005746715
