17
Coordinates from ORCA-job NEB_reactant E -41.607755582270
  C           1.13016645332827      0.01309534282251     -0.94356270440376
  C           2.21357193415207      0.76916411400796     -1.03266815566738
  I          -0.75443778996047      0.89532926523616     -1.08001658217649
  H           1.16990922630770     -1.04549781604794     -0.77954618989144
  F           3.43176875162771      0.18812582884885     -0.98620175912542
  C           2.22883679155767      2.06442779639692     -3.93757613236147
  C           3.28919406334779      2.50205452287567     -3.27672426199779
  C           3.31023502781354      2.71236816559099     -1.79262337998395
  O           2.21906262918845      2.09816243157577     -1.12348388025571
  C           2.16062339502432      1.80829143480061     -5.39760007067633
  H           1.29635296654996      1.85767958324488     -3.42961305173584
  H           4.21537983795068      2.72999210203610     -3.78255903536112
  H           3.21359538622709      3.77834474494154     -1.56418112072645
  H           4.26330794398791      2.35464676188442     -1.38416741748570
  Cl          0.85193266912775      2.79619187567293     -6.11019025377989
  Cl          3.66212132315911      2.16716175977421     -6.25917274069397
  Cl          1.76287939061046      0.08116208633843     -5.66091326367728
