17
Coordinates from ORCA-job NEB_product E -41.625250187140
  C           2.10326667021674      0.37541985523178     -2.29952440113315
  C           0.73281650894330     -0.20118498574084     -2.49331989367974
  I           2.22553108509151      0.61548430100284     -0.15033966280811
  H           2.88070959436484     -0.34095579756473     -2.56553313248475
  F           0.78452075988440     -1.55378417799958     -2.56797446017395
  C           2.27433735236317      1.71042473337979     -3.02648954001397
  C           3.37854261356668      2.55293113372790     -2.44711821528094
  C           3.21639981817891      3.81416611338634     -2.09660030319495
  O          -0.30489004040028      0.35755945957748     -2.52159571324454
  C           2.56456962201940      1.43923319446977     -4.50961300668219
  H           1.32693732725559      2.26063595567315     -2.97229626785109
  H           4.33318588540994      2.05862318771552     -2.33970818613620
  H           2.27098648332297      4.31978494557742     -2.20296886900616
  H           4.02517541644302      4.38933098071315     -1.68226981660207
  Cl          2.58782175466636      2.97242011992014     -5.40240337624358
  Cl          4.14000255164628      0.63807568746428     -4.72264193451915
  Cl          1.31278659702717      0.38183529346560     -5.22660322094546
