24
Coordinates from ORCA-job P E -38.907194696180
  C          -1.36537664079559      0.35261485094985     -2.41724911351886
  C          -0.14491371972629     -1.68792510464556     -1.06057538662475
  C          -1.51877983781908     -1.92007600741826     -1.60409182237724
  C          -2.11496150461348     -0.93585500693760     -2.25675882943374
  C          -0.77556328485312      0.79661247867552     -1.06674496952053
  C          -0.10764879760749     -0.34790419427844     -0.28841735393407
  H          -1.98824606177153     -2.87703164494475     -1.44324318821140
  H          -3.10293629788743     -1.01936754541049     -2.67968674192703
  C          -2.26434470801864      1.44373015928371     -2.98177703557921
  H           0.15892329485980     -2.50467607811412     -0.40754305933610
  H          -0.54322591589148      0.20545174317438     -3.12924506352566
  H           0.56601130054175     -1.62937673922024     -1.89088772719995
  H          -1.57794267924828      1.22582780874880     -0.46374020621706
  H          -0.63696589733699     -0.50241713107189      0.65648674973601
  H          -0.03448141032526      1.57919630270167     -1.24469147605689
  C           1.34642634455191     -0.02484626221745      0.04497561409395
  F          -1.58144634577693      2.59962247266922     -3.16429917492709
  F          -2.73980122826406      1.09531056476636     -4.20434492110027
  H          -3.13192740641558      1.66730825178633     -2.34011138591789
  O           1.93367398730132      0.90842195093213     -0.43658478863620
  C           2.01016966425696     -0.98475576772149      0.99993000059499
  H           1.30883853835575     -1.38251671832553      1.72707282202398
  H           2.83225909253847     -0.48497995395741      1.50592357507810
  H           2.42629951394527     -1.81221842942476      0.42688348251691
