24
Coordinates from ORCA-job TS E -38.804603544350
  C          -0.99155259478490      0.50583591866746     -1.41077037795347
  C           0.24156686662686     -1.83075800041281     -0.23298205974830
  C          -1.08832637681291     -1.72108098557882     -0.42408228774916
  C          -1.69634162388824     -0.59858026344406     -1.04004531464216
  C          -0.34184368442904      1.21529424028038      0.57770566991200
  C           0.36710113969330      0.23764594271693      1.20484895513375
  H          -1.75160750053273     -2.44519013604266      0.02949025696669
  H          -2.77745956471257     -0.55226529977781     -1.03265893232100
  C          -1.71075238137214      1.67498892767950     -2.01563282441940
  H           0.64484909400916     -2.64742074765208      0.34223182840352
  H           0.05526908714885      0.44939389585729     -1.66658338165525
  H           0.95345403377848     -1.25584999682200     -0.79419562603106
  H          -1.34862103997349      1.44452686244920      0.88472386570791
  H          -0.09048320036841     -0.38932544667528      1.95399189000306
  H           0.20151440128800      1.99028036583100      0.06214004506160
  C           1.82620903046348      0.15909898596717      1.04083161107833
  F          -0.97542772405821      2.80958073028869     -1.95261451345401
  F          -1.93643903588527      1.45726157813933     -3.34315450644035
  H          -2.68918789085686      1.88209129993601     -1.55210229412338
  O           2.41326373959445      0.71857398013324      0.13903595908807
  C           2.54493627959625     -0.63666512080106      2.10483210251887
  H           2.10275615166272     -1.62307829466353      2.21456557760566
  H           2.44902626989621     -0.11567264474821      3.05614430829687
  H           3.59809652391702     -0.72868579132787      1.85428004876123
