32
Coordinates from ORCA-job P E -44.459915153950
  C          -1.97312454789999      0.29262343551787     -2.25324255941789
  C          -0.14642254980625     -1.57108298901362     -1.44288786592300
  C          -1.57409346446831     -1.99388609556771     -1.58356971231604
  C          -2.46663371597692     -1.08664023019117     -1.94670494877921
  C          -1.05044192064021      0.81393065581112     -1.13254761669487
  C          -0.11845861746158     -0.29495974487808     -0.57177792281144
  H          -1.85023042212860     -3.01230336122992     -1.36437059780317
  H          -3.52287875823379     -1.28041217514468     -2.03711392886670
  N          -3.07479171119825      1.26468719087649     -2.38580540521840
  H           0.45357521028983     -2.33561993873767     -0.95260317911131
  H          -1.43184900502787      0.30470381813158     -3.20765216615597
  H           0.27324052082171     -1.39305029365630     -2.43045307478199
  H          -1.67811674050216      1.18629039590724     -0.31996074811960
  H          -0.56452190372581     -0.62418461948317      0.37324854958720
  H          -0.46741434801539      1.65297857428088     -1.51209828663477
  N           1.22797286971054      0.12482361469840     -0.21719290992674
  O          -2.92767402227297      2.14772613821404     -3.19993918718711
  O          -4.02568280934639      1.14409818131859     -1.65147709885077
  C           2.02211822667459      0.93671546350871     -1.14668999378925
  C           3.50126160841944      0.85146503821182     -0.74271918384177
  C           1.92537698928724      0.50189619370453     -2.60728116987841
  C           1.26232535398304      0.70594700847591      1.11404210556797
  H           1.71244811339788      1.99864383810445     -1.08450057145988
  H           3.76544421611338     -0.18548866061235     -0.55381504946578
  H           3.72035708844354      1.43870237816480      0.14361709991926
  H           4.12449417787617      1.22920170998131     -1.54891876108037
  H           2.27940549947853     -0.51910928112330     -2.71988352023652
  H           2.56327733122235      1.15061907473402     -3.20417429485499
  H           0.91878819031855      0.58587213102375     -3.00212157482680
  H           0.69095514567983      0.08349651846270      1.79959562680831
  H           0.85212900997405      1.72674455562701      1.14344693839599
  H           2.28593498501380      0.73564147488275      1.47639100775407
