20
Coordinates from ORCA-job NEB E -29.299432193090
  C           1.13586804457401      0.25078808878172     -0.42189586669640
  C           0.79400763980774      1.60832401968110     -0.45842744139586
  C           0.79860760125722     -0.60870655209064     -1.61561401472160
  H           2.10481242762423      0.02323139207185      0.01459651608407
  H           1.31684299826133      2.29951035317869      0.21073913067010
  C          -0.13144673805106     -0.27785229745261      0.92561857487099
  C          -1.35571421272735      0.12277576721827      0.38092746201021
  C          -1.55400329629010      1.51362733718499      0.15534519408943
  O          -0.38367184108752      1.95704789512654     -0.88167579856585
  C           0.10933605320553     -1.74425421410803      1.19465300311607
  H           0.25901651599183      0.33022358326793      1.73724401166004
  H          -1.89405089486885     -0.57714456017241     -0.24235894625967
  H          -1.34358868318562      2.17192056541366      0.99455758571460
  H          -2.45484813636832      1.79744861695845     -0.37486339900627
  H           0.76449528384240     -1.66499789295102     -1.36539538583123
  H           1.57113904953467     -0.46644664367503     -2.37123613522281
  H          -0.15281902024952     -0.30386067660272     -2.04176798788767
  F          -0.23492793471559     -2.02643653570630      2.49855753305652
  H           1.16475322392451     -2.01916168179255      1.09648052341431
  H          -0.51380808047955     -2.38603656433189      0.56451544090102
