20
Coordinates from ORCA-job NEB_reactant E -29.333203959870
  C           1.72885094748852      0.02028008798287      0.00189809410783
  C           1.12030020671131      0.11136172890984      1.17648837854469
  C           1.98149250687841     -1.26285747419505     -0.71892981096526
  H           2.06344097142924      0.92863637355165     -0.47488839403544
  H           0.96057425926942      1.06969153398592      1.65977204443310
  C          -0.26455554238663     -2.47164324408562      4.86531544131529
  C          -0.48371034387350     -1.99232468878875      3.65351146818733
  C           0.11198747364131     -0.72502572448565      3.12876257667172
  O           0.64902194771775     -0.97984095687721      1.84893846578956
  C          -0.87354609080106     -3.72538406344243      5.40600719107757
  H           0.38200534493031     -1.96300935705448      5.56751591476535
  H          -1.12258234904501     -2.51830137606442      2.95911238405153
  H           0.89331759040775     -0.35342995149038      3.80846585512584
  H          -0.67614861770413      0.04363269349353      3.05717726702218
  H           1.62347934775223     -2.09893798152434     -0.12608237138926
  H           3.04730884196740     -1.38822957106847     -0.90865605814000
  H           1.47044114852004     -1.26452280791666     -1.68159795811575
  F          -1.73108030845590     -4.31438683796272      4.51398934524210
  H          -1.45492030325000     -3.51764429122057      6.31364197057409
  H          -0.09807703119746     -4.46696409174706      5.63745819573756
