19
Coordinates from ORCA-job NEB E -28.905975202290
  C           0.41439924269938      0.75637736564703     -0.22639156820004
  C          -0.97245966100932      0.73624496189006     -0.13219963784107
  Br          1.16529816956318      0.48365107349387     -2.41664443757924
  H           0.89646584987387      1.71807319763741     -0.12155834653712
  C          -1.77231248856245      1.98715598583983      0.04208924760777
  C           1.10961245195617     -0.40772765313389      0.56627552165697
  C           0.43709305108612     -1.62477393855934      0.06171743760682
  C          -1.02549270456760     -1.65084108403618      0.04752156894548
  O          -1.68976992405168     -0.38338387029983     -0.13835964495071
  N           2.53563463568188     -0.31789426368361      0.40707310250625
  H           0.89096465476739     -0.21536321601283      1.62762046901303
  H           0.95478036288001     -2.19897274420640     -0.69129171278503
  H          -1.42822243656396     -1.99443793959944      1.01086407476184
  H          -1.41288232601191     -2.31068679032073     -0.73333730210378
  H          -2.77452371210184      1.73248109419929      0.37520686789779
  H          -1.84590025221486      2.51502185730355     -0.90910239954906
  H          -1.29910550934507      2.65359009154158      0.76045503892104
  H           2.80450883373536     -0.51285914099617     -0.55119232777018
  H           3.01191176218535     -0.96565498670420      1.02125404839922
