19
Coordinates from ORCA-job NEB_reactant E -28.960586542670
  C           2.32255551043699     -0.03671739064699      0.54041146316867
  C           1.55559964137840     -0.34902454755727      1.58366183276288
  Br          3.26760824100021     -1.15649094537377     -0.67007978693077
  H           2.46432564624590      0.99796128835173      0.28134412496874
  C           0.90519669833243      0.76773702751723      2.36142564122332
  C           3.85411676981002     -2.17720125717866      2.97070074910196
  C           3.24517923174090     -2.87131130357308      2.01326690784590
  C           1.77950879479790     -2.75660748993104      1.71034368712109
  O           1.19971581046528     -1.53106024541700      2.12963406791081
  N           5.21652787346244     -2.16399133968331      3.19529021165732
  H           3.29627908286704     -1.49468504089911      3.59847215467671
  H           3.80011009299959     -3.54875264736659      1.38212809023734
  H           1.20978989859001     -3.50969745867918      2.27047241273425
  H           1.59489604159310     -2.92752309212915      0.64388187994268
  H           1.33041318313893      0.80805159297956      3.36278523870796
  H          -0.15802255479423      0.55966259883264      2.45919532927388
  H           1.04423624257462      1.72722686243186      1.87552714850230
  H           5.72647310976243     -2.90525855002420      2.73804366876411
  H           5.50569068559803     -2.00131806165367      4.14649517833083
