19
Coordinates from ORCA-job NEB_product E -28.963251181970
  C           2.89532257365893     -0.37296292630247      2.00846535312096
  C           1.38295683559023     -0.19505953956082      2.03331793047898
  Br          3.47121356799867      0.04920893767097      0.17649300962732
  H           3.38791223604646      0.38113834325439      2.62688043462619
  C           0.92596821847785      1.23637426947492      1.97565116244623
  C           3.37052433158200     -1.76266243653651      2.43665565878482
  C           2.93393280955615     -2.85372480683450      1.49670974421883
  C           2.26963152006130     -3.92889595321833      1.87325635232760
  O           0.63338192585010     -1.13058499448270      2.11395970813759
  N           4.81827081001548     -1.70489670785976      2.61096667923258
  H           2.93106212834416     -1.94416217377929      3.42696004105471
  H           3.25556680916048     -2.73600765107640      0.46940111539290
  H           1.94151387885794     -4.06554682796123      2.89036846142354
  H           2.00862024247720     -4.70631241306951      1.17618769195098
  H           1.13676579309484      1.70731018216952      2.93559810087559
  H          -0.14480625433498      1.27376118787638      1.79330947275022
  H           1.45230174146381      1.79196002990428      1.20328041546784
  H           5.27118762678068     -1.56695440889848      1.71110350852086
  H           5.15957320531870     -2.57898211077047      2.99373515956225
