28
Coordinates from ORCA-job P E -30.585660542190
  C          -1.42108524681630      0.26347197354894     -2.51976131693197
  C          -0.31597840208192     -1.84071831813227     -1.14295486411792
  C          -1.74467216963477     -1.94501418441738     -1.56943779645326
  C          -2.27816749459434     -0.93226875930274     -2.23254546162540
  C          -0.70648170096422      0.68227826885592     -1.22155900779209
  C          -0.06188557963647     -0.48951975783934     -0.44928891104157
  H          -2.30175331320999     -2.83515570408160     -1.31994517090334
  H          -3.30486185436822     -0.92812235755993     -2.56524596844383
  C          -2.23741751399246      1.40870091541042     -3.12416341906369
  H          -0.05395277264455     -2.65795467085645     -0.47218152238452
  H          -0.65088313770591     -0.03299645636550     -3.24518174828162
  H           0.32930247105290     -1.90528102035528     -2.02567836583644
  H          -1.43960650645629      1.17672033165209     -0.58116106886957
  H          -0.52541656435845     -0.54581442099605      0.54164737925561
  H           0.06181868397191      1.41596304838902     -1.46743010780148
  C           1.43848386837305     -0.23996009287799     -0.25274661852692
  C          -1.38488061586971      2.57931332600612     -3.60009396469048
  H          -2.96072848966609      1.76237905430119     -2.38524543315586
  H          -2.79928423304108      1.01634240645149     -3.97586195028697
  H          -0.88893789795081      3.06887010130736     -2.76599404229638
  H          -2.00643156264724      3.31703635139273     -4.10297828268003
  H          -0.62568161693393      2.23774852497138     -4.30097040945716
  C           2.11969479615219     -1.27269871059156      0.63840928953044
  H           1.56715049827985      0.74643027531956      0.20041782144338
  H           1.92973018236768     -0.22309845487953     -1.22889692801842
  H           1.60256851945567     -1.35193502716432      1.59243520746251
  H           3.14945624099319     -0.97974513635196      0.83157579035769
  H           2.13115141192631     -2.25278150583435      0.16918687060932
