28
Coordinates from ORCA-job R E -30.496036240300
  C          -1.45759501157746     -0.30518033324493     -3.18036149603320
  C          -0.27934601690732     -2.90899629166973     -2.14629814977563
  C          -1.47708110761568     -2.40973043690593     -1.85887178879694
  C          -1.99617720142281     -1.11812457771623     -2.27343891751255
  C          -0.48789040992695      1.94066714471421      0.69124964213983
  C          -0.22235582469652      0.75853346122535      0.16850474010289
  H          -2.15028399834776     -2.99314719287405     -1.24196173491424
  H          -2.91930926111103     -0.81683814574691     -1.79239487660678
  C          -2.02016853373893      1.02332004688367     -3.56139826275857
  H           0.02573759448442     -3.87929583656431     -1.79334000754383
  H          -0.54902308118037     -0.58609987743955     -3.69573319915091
  H           0.44249082571727     -2.37310000856856     -2.73823195171473
  H          -1.45319097820500      2.18180986999084      1.10377269762046
  H          -0.98180935842338     -0.01197842516257      0.14425135931573
  H           0.25156755696067      2.72513969023980      0.72536178757775
  C           1.09240407006009      0.36190222504114     -0.42094650907240
  C          -1.01932983432155      2.14657449571735     -3.28474777234605
  H          -2.94209911932315      1.21052578160802     -3.00746662007509
  H          -2.25939758275065      1.01806060738389     -4.62962621111870
  H          -0.78552213365308      2.18857726259840     -2.22296096318508
  H          -1.43310503007394      3.10538550706104     -3.58829679886581
  H          -0.09620932121914      1.98014184217513     -3.83598022934266
  C           1.65011988548421     -0.88396326743794      0.26487949550784
  H           1.80334777050906      1.18619413692541     -0.33430463969942
  H           0.94631978045554      0.14376365559485     -1.48246448019035
  H           1.79905527750729     -0.69794788118130      1.32633658706646
  H           2.60466255452780     -1.16546146374655     -0.17400528773750
  H           0.95909848878837     -1.71657198890054      0.15112358710947
