28
Coordinates from ORCA-job TS E -30.475624974910
  C          -1.06152575941375      0.22636592389279     -1.15137521681673
  C           0.09670897964860     -2.07575330511519      0.12556012044983
  C          -1.22690045467790     -1.98436028909617     -0.15409846580012
  C          -1.79363764502533     -0.87108990947548     -0.80748261547249
  C          -0.43139349397845      0.76756842087503      0.94282555199971
  C           0.38123549333274     -0.18626334050629      1.46880211819392
  H          -1.90983136358727     -2.69458977257024      0.29375718183075
  H          -2.87384033531638     -0.80702209882050     -0.84360306406183
  C          -1.70886944875990      1.45298490482692     -1.73341817181421
  H           0.45924270081499     -2.89802554439512      0.72045382007703
  H          -0.00676580253579      0.12298345845504     -1.35069327652952
  H           0.83263784963446     -1.57258896975055     -0.47192975957737
  H          -1.45997889768348      0.83954491125238      1.24851407064107
  H           0.00264619955093     -0.85959830036443      2.22150679916325
  H          -0.00465962292712      1.64673133261482      0.49325560866781
  C           1.88024150867004     -0.03506769779362      1.39885736044929
  C          -0.69838827790006      2.44579684331235     -2.29559065348623
  H          -2.32032025239402      1.94481796285584     -0.97164099903278
  H          -2.38992489986338      1.14624129917525     -2.53382884382356
  H          -0.02519672980716      2.79832162709817     -1.51700683856937
  H          -1.20687084025414      3.30879228767411     -2.71996192964731
  H          -0.10285711998930      1.98077130180653     -3.07855403927028
  C           2.65755637450014     -1.20809437940837      1.98300825987477
  H           2.14634356894596      0.86482512905989      1.96625643701375
  H           2.19566113764420      0.14387398562205      0.36721892890426
  H           2.32409899625329     -1.41442213455156      2.99773072616680
  H           3.72039298224574     -0.97623732160067      2.01354430169849
  H           2.52419515287236     -2.10650632507298      1.38789258877107
