23
Coordinates from ORCA-job NEB_reactant E -32.608562839830
  C           1.88413040993227      0.00650748275441     -0.02915355219706
  C           1.70963081182133     -0.04694172022126     -1.35130277877199
  N           1.64730691889686      1.13661770610731      0.74950259798735
  H           2.29363767181067     -0.84017807203361      0.50023151100468
  C           2.05295842731560     -1.24052782216390     -2.19210801441304
  C           4.18019611036041      1.43498903521477     -3.61577372425781
  C           2.86248911202244      1.58544255018098     -3.65497106257633
  C           2.06826129758354      2.02426245499116     -2.46260109730770
  O           1.14101725447564      1.03884055719349     -2.01924223535022
  O           5.01637378401569      1.03425188848960     -4.60330433600750
  H           4.74917962507903      1.64991137411710     -2.72036259820801
  H           2.28196701669095      1.35903746559282     -4.53588518879161
  H           1.44180514929870      2.88363622048889     -2.72613131628139
  H           2.74201980818253      2.30461809180802     -1.64263685345270
  H           1.05692513141256      1.80671904911698      0.27318716451860
  H           1.31832172176451      0.93677871846332      1.68267981898150
  H           2.90419012629780     -1.02299840934972     -2.83788564881433
  H           1.20577963239577     -1.49586069163806     -2.82719856840770
  H           2.29702336442071     -2.09049146223927     -1.56189718989290
  C           4.44216237423357      0.70865842200995     -5.84691225760492
  H           5.26732662428070      0.41324724322108     -6.49241684405152
  H           3.92629355855788      1.57026860426885     -6.28228707244307
  H           3.73580406915084     -0.12238868637291     -5.75303075366233
