21
Coordinates from ORCA-job NEB_reactant E -45.423981559950
  C           1.47340168346502      0.23731844100239     -0.02609730663833
  C           1.24751930811075     -1.07559476382764     -0.17709079344733
  O           1.36477967139793      1.10918181008762     -1.03790057172482
  H           1.77904162880287      0.62078775002655      0.94070656833216
  C           1.33200983197062     -1.99177357540828      1.01570749857056
  C          -0.53598298152861     -3.98230605085730     -3.41139390546732
  C          -0.42777429109324     -2.76869788932828     -2.90326962092018
  C          -0.15426560906646     -2.51169394427355     -1.45639796929562
  O           0.97497401412768     -1.64234358797345     -1.39191458625816
  Br         -0.90739116282447     -4.28742282559368     -5.23347211101990
  H          -0.44623794962774     -4.89125862917464     -2.83774793901645
  H          -0.51017513638929     -1.88681679298682     -3.52106395554969
  H           0.04131676193824     -3.45231880619199     -0.92628774611998
  H          -1.02691145739940     -2.02158899397383     -1.00010787499078
  C           1.79017407375592      2.42859213739664     -0.76421877394339
  H           1.56635404694007      3.00905883736602     -1.65671703862295
  H           2.86568032304704      2.46294695275101     -0.56806828635504
  H           1.25307560686765      2.85004325227902      0.09066865681841
  F           0.11599743254903     -2.30420110112198      1.52265439060429
  F           1.91821767162235     -3.16136219045206      0.73002700507530
  F           2.01839653333403     -1.45065002974576      2.03198435996920
