23
Coordinates from ORCA-job NEB E -53.609837184720
  C           0.32656801757982     -0.68272507690959      0.65611682441395
  C          -1.02646696779524     -0.41937817725925      0.97123605155383
  C           1.38288321735521      0.01648143386267      1.48444685061413
  H           0.60841102714292     -1.72470913318850      0.52766284012997
  C          -2.06930219011700     -1.46756384829176      0.73490667206713
  C           0.38561237887151      0.11392570521926     -1.07176853357624
  C          -0.03589065665776      1.43462857092420     -0.86671248425682
  C          -1.33785381151700      1.62146327439513     -0.30585657907497
  O          -1.40168100491586      0.82502221311520      1.06961138129433
  C           1.74970365094690     -0.09548347264146     -1.68914858051345
  H          -0.31561367916125     -0.57915717456583     -1.53386052454691
  H           0.70859110647924      2.20105695637809     -0.71858671447309
  H          -2.15843006410602      1.14906998850606     -0.84486120330915
  H          -1.57499678364582      2.63622536880628     -0.00916108303704
  F           2.62417373670242     -0.31523485489245      1.11027725513432
  F           1.32258910075173      1.34661047244516      1.50163247781881
  F           1.27244334549613     -0.38283136432220      2.76800483153270
  H          -2.43032947751890     -1.40034696347790     -0.29580163035657
  H          -2.91824467446853     -1.28850288274736      1.38993532159659
  H          -1.67814986154041     -2.46457624057699      0.90668240265553
  F           2.23849036678533     -1.32185318865271     -1.45189866203351
  F           1.65990566134281      0.01019679126748     -3.02994023801033
  F           2.66758756198976      0.78768160260647     -1.30291667562319
