23
Coordinates from ORCA-job NEB_reactant E -53.649037522490
  C           1.89689168194066     -0.08361134902930     -0.79586384132609
  C           0.88320106779664      0.05084654771448     -1.66312676387359
  C           2.95818216906104      0.86083617762841     -0.36195346713375
  H           1.97583083189088     -1.02560146146928     -0.27789930356676
  C          -0.06662670739292     -1.09762875538075     -1.86361375297117
  C           2.63600700311318      0.93119092676841     -4.29478626358779
  C           2.41749300055104      2.04076994367458     -3.60910514032110
  C           1.28212583988054      2.23486269321579     -2.65475150634826
  O           0.50350600614502      1.07466958843484     -2.44461464557635
  C           3.77450448593642      0.77366131981315     -5.24887304474102
  H           2.00970209698089      0.05521981085901     -4.22277309054186
  H           3.07104187958677      2.89460646730357     -3.71514101230612
  H           0.58171164572531      2.95627694146052     -3.09326213750896
  H           1.64518501110518      2.66639741730828     -1.71831141051776
  F           3.78161539499232      1.29544756388958     -1.34220923159737
  F           2.48411544135778      1.98904525749816      0.22362032976702
  F           3.75051292844973      0.28666087063852      0.55167064108037
  H           0.26369446538538     -1.70478092453782     -2.70482154052322
  H          -1.05251036049806     -0.70643384795815     -2.09902166662235
  H          -0.12048276100194     -1.72586074899141     -0.98178256868330
  F           4.57353340438020     -0.25281898712599     -4.91012909966413
  F           3.34070599521968      0.50645508326293     -6.49691916290478
  F           4.55305947939427      1.85698946502249     -5.34243232053166
