14
Coordinates from ORCA-job NEB E -30.290801097390
  C          -0.97579361667617     -1.57667616998809     -0.90621371201154
  C           0.13821801270982     -1.31295390588643     -0.32698191233550
  Br         -2.52508046220183     -1.99771353785281     -1.55770919626628
  H          -2.35927059032120     -2.66920429440528     -3.18280826567270
  Cl          1.68325841898911     -1.55097306436125     -1.26296469057052
  C          -0.59472771734369      1.69738833779916      0.39482387213002
  C           0.66165788055967      1.50691804862940      0.75667311587057
  C           1.21801056096235      0.17667985921529      1.17231983500060
  O           0.34417602186486     -0.91632660141273      0.94235808753539
  Cl         -1.19679173543248      3.23145404488423     -0.08809515712406
  H          -1.33401840768054      0.91245411025716      0.37417121656486
  H           1.36986089003979      2.32223114087761      0.77102986075989
  H           1.39602356320700      0.16780330188310      2.25273631711341
  H           2.17447718132332      0.00891873036063      0.66066062900586
