14
Coordinates from ORCA-job NEB_product E -30.469102807310
  C           1.77072788182430      2.06777921564172      0.09913818246355
  C           0.40695473640012      2.24539987946347     -0.51719330994637
  Br          1.73636701510470      0.25163981159250      0.83390962739414
  H           2.56380005858685      2.07674796858770     -0.64927420031392
  Cl          0.37061712650040      1.73307711006118     -2.19620178870250
  C           2.02834326500512      3.06665269631484      1.21649286063883
  C           3.32122707466197      2.83236208816165      1.91935100337301
  C           3.42370510798257      2.72250052430052      3.23100323024020
  O          -0.56643500744209      2.63628879854713      0.03060495248364
  Cl          2.07427170769515      4.68606112402149      0.41416926590389
  H           1.18594643838897      3.08726461129393      1.91303675209285
  H           4.19051778375079      2.76860262393131      1.27986798828659
  H           2.56386013288907      2.78945761806490      3.87654393505146
  H           4.37239667865207      2.55316593001765      3.70835150103463
