14
Coordinates from ORCA-job NEB_reactant E -30.455029635170
  C           1.10152078576799      0.51130507408879     -0.02848090520890
  C           2.13126911346011      1.15929693089163      0.51041399376565
  Br         -0.35671933747037      0.00499951121802      1.04587229882352
  H           1.04011739533064      0.22948473951018     -1.06183276553297
  Cl          3.44429514221428      1.64151201155420     -0.51966722401255
  C           1.61100401777133      4.15301328893911      1.36048245082348
  C           2.78100626856135      3.79596037687323      1.86245922686038
  C           3.11284176815748      2.39637394579822      2.29315914470269
  O           2.20773699927243      1.41769147406634      1.81902570659623
  Cl          1.26800717630681      5.76017328094156      0.86906495625841
  H           0.78336503175581      3.47355569578097      1.22465195966802
  H           3.57527527715268      4.51509690023171      1.99282688292472
  H           3.05163082301904      2.31376900923249      3.38332958682881
  H           4.13604953870041      2.14906776087355      1.98319468750252
