20
Coordinates from ORCA-job NEB E -49.218076875440
  C           0.49911084573194      0.84681413936057     -0.09322599414084
  C          -0.76467824542802      0.59989461398672      0.48133016881917
  C           0.55665786003190      1.43266250370772     -1.49204348771891
  H           1.20223140818933      1.38191186871937      0.54108423096623
  C          -0.91475035731930      0.78771649244965      1.98190051039776
  C           1.22437600793119     -0.91353214952223     -0.36422974545517
  C           0.20971014552257     -1.83810174884234     -0.09135395219125
  C          -1.04459329333786     -1.59410184880747     -0.71903627404469
  O          -1.60195319253402     -0.20202972786958     -0.08229811545293
  Br          2.82046187152530     -1.03348551101930      0.68813136106744
  H           1.49253190258298     -0.75328394687295     -1.40176454319376
  H           0.20872877178240     -2.33150506679946      0.87090584965139
  H          -1.84804702784924     -2.27741055504984     -0.46916323248051
  H          -1.01925012590355     -1.34878434349310     -1.77668600922964
  F           1.83399356332243      1.49140118687509     -1.93290471279720
  F          -0.12038188951802      0.71729282454138     -2.41541598207436
  H           0.15446982362339      2.45886648200497     -1.50159917164892
  Cl          0.09684540512614     -0.40151641566724      2.87045525394718
  Cl         -0.38610925394807      2.41673877435940      2.44760843258648
  Cl         -2.59935421953150      0.56045242793861      2.45830541299252
