20
Coordinates from ORCA-job NEB_reactant E -49.254237033010
  C           1.60841332585321     -0.11766662780167      0.10082708273823
  C           1.57178694642320     -1.09986025405506      1.01143342026480
  C           1.91929640487408     -0.17424654010220     -1.36214622893679
  H           1.37245400219556      0.87415348828122      0.44701913840950
  C           1.24422604166394     -0.77814233013735      2.46370285901934
  C           3.77880410951162     -5.05416043473758     -0.06983658484430
  C           2.62162702647977     -4.46598898603854      0.17269422203176
  C           2.33109026612175     -3.05037187232090     -0.21461894352136
  O           1.81969923008860     -2.40786124473360      0.95164199872324
  Br          4.12074175022320     -6.84881317849557      0.39050511006710
  H           4.60803880730259     -4.57516090209605     -0.56662734332218
  H           1.82052436813599     -4.98278606987329      0.68033077637994
  H           1.57249642113099     -3.04101619830212     -1.00663632471337
  H           3.23913816516778     -2.55213106926700     -0.56438371843432
  F           3.20391354892243     -0.55192094367111     -1.61969731370142
  F           1.13940774306304     -1.06143340199350     -2.03770559705496
  H           1.77477228680881      0.80752023684712     -1.83501402670369
  Cl          2.78516451584039     -0.80782259001082      3.36771486920375
  Cl          0.48192730667571      0.79048039736594      2.71010996864409
  Cl          0.16817773351733     -2.02327147885792      3.12648663575062
