20
Coordinates from ORCA-job NEB_product E -49.261954427300
  C           2.49199416336000     -1.60625172861476      0.55513866292220
  C           1.26797840868739     -1.72431206484323      1.45025293635299
  C           2.16552986497276     -0.72114054948797     -0.66356927054376
  H           3.30347200238159     -1.11111904690451      1.09692187900256
  C           1.35236629292194     -0.92559714596484      2.76836509467525
  C           2.97677571427785     -2.99009221655781      0.08378453268804
  C           2.03050210053753     -3.74233716793521     -0.78298232121702
  C           2.38142339742702     -4.22066300091526     -1.96312203431325
  O           0.28067893770514     -2.33111931300560      1.17421177567342
  Br          3.35628038218911     -4.06859538557921      1.70805840580219
  H           3.94620099837760     -2.87587762739979     -0.40810519649040
  H           1.03722522802731     -3.89113105089899     -0.38628800475753
  H           1.68443866289756     -4.76466073728041     -2.57493709768554
  H           3.37072401595188     -4.07866764123247     -2.36782240378301
  F           3.22949054600213     -0.69562162380508     -1.49941392881820
  F           1.12888237197158     -1.19302572459671     -1.37792140747654
  H           1.93759721358052      0.31633139800669     -0.37465411995826
  Cl          2.86558334958000     -1.19102239739108      3.64747813206742
  Cl          1.26006863074755      0.78863511525238      2.25915065196944
  Cl         -0.02041228159648     -1.30693209084616      3.80665371388998
