22
Coordinates from ORCA-job NEB E -33.202138854440
  C           0.34516899939320      0.77517467284187      0.65897163062103
  C           0.75972216728282     -0.52988213261687      0.41934801185075
  O           0.94798063295249      1.81113242804286     -0.01050565668632
  H           0.01378854245895      0.99564331461718      1.66971984309609
  O           0.39792887363810     -1.40822535106490      1.41747108249699
  C          -1.45084587337318      0.60475933778015     -0.49537908812493
  C          -1.37297497086057     -0.59680771623069     -1.15792521763563
  C          -0.19769128517910     -0.85176403980188     -1.90335725547263
  O           1.04923867886343     -0.98733766382544     -0.73866960171189
  H          -2.23814462114284      0.76387097581259      0.22613651459810
  H          -1.11244860640825      1.48689324980258     -1.01579507797580
  H          -1.91544863714620     -1.44665996782856     -0.76223705210634
  H           0.21293298308240     -0.02025274483264     -2.46337962350565
  H          -0.09568180521115     -1.80526416529196     -2.40429855527583
  C           0.63117576954152      3.09123130193141      0.47865168500622
  H          -0.43345773288382      3.32062359020655      0.35517446137833
  H           1.22173284725290      3.79534675705348     -0.10461886271633
  H           0.89194793372958      3.18678174993557      1.53846787414136
  C           0.55767400862622     -2.78138611097786      1.11902064081167
  H           1.59877996463529     -3.00409469099939      0.87042837195523
  H          -0.07630274547421     -3.08436156326083      0.28265765833941
  H           0.26492487622244     -3.31542123129323      2.02011821691618
