22
Coordinates from ORCA-job NEB_reactant E -33.229730920900
  C           1.25155152992015      0.18384116978413     -0.05560767823595
  C           1.31642153030589     -0.92423510110479     -0.79345594876380
  O           1.25305688250611      1.43611866368089     -0.59977531934903
  H           1.15129689841483      0.10206354106640      1.01900794090408
  O           1.11463445083863     -2.14514266556634     -0.18455354327713
  C          -1.14946562362850     -0.02701767225513     -4.27056371247025
  C          -0.57652867937928     -0.31735866354716     -3.11856737861003
  C           0.46138864386320     -1.38308283023204     -2.93979800738127
  O           1.55419586127439     -0.93252939721925     -2.13763446731703
  H          -1.90007943650578      0.73977245550735     -4.35480209793489
  H          -0.89843204158447     -0.55208998120369     -5.17789154206960
  H          -0.82652942744145      0.22144851835689     -2.21522350299836
  H           0.89907557902847     -1.67036721093686     -3.89897731479862
  H           0.00356807059703     -2.26855727415415     -2.47312847305193
  C           1.53629781569301      2.47268008161372      0.30792602642739
  H           1.41016349661479      3.40338614792763     -0.24217338631336
  H           2.56463885880832      2.40850469094131      0.67997936917829
  H           0.84768010170845      2.45642228313498      1.16040251134058
  C           2.14031679944500     -3.09861206659083     -0.41558154057774
  H           3.04823455246953     -2.82598883210103      0.13166955379552
  H           2.37693159386137     -3.18057455534822     -1.47946969472610
  H           1.75928254319031     -4.04878130175383     -0.04698179377074
