22
Coordinates from ORCA-job NEB_product E -33.271351467390
  C           0.62932288344195      0.43680322679811     -1.19063796627934
  C           1.72103793142918     -0.62275858097430     -1.05294099958827
  O           1.13268522887749      1.74693009916889     -1.16709650257898
  H          -0.09936782693548      0.28200923458188     -0.37627827695636
  O           1.20907232655956     -1.73144324902081     -0.50792060021282
  C          -0.05021703968191      0.22530744820993     -2.55587670474762
  C          -0.72052039465733     -1.10717057454922     -2.64403730722522
  C          -0.42320892800404     -2.03012847660054     -3.53887090795297
  O           2.86234101588911     -0.49865947013337     -1.40396455108320
  H          -0.78382135916317      1.02625408825761     -2.67628669240086
  H           0.70690521059388      0.33513758975983     -3.33328391302478
  H          -1.49070903404993     -1.28811428460183     -1.90566440642391
  H           0.34320434563408     -1.87321242309469     -4.28018188230421
  H          -0.93478404517974     -2.97683079027076     -3.57402023457650
  C           1.72049109799867      2.11870020310482      0.05661974160360
  H           1.99130566675712      3.16731470386628     -0.04589690292467
  H           2.61927147824786      1.53176501641036      0.26894049849079
  H           1.01095253818014      2.00238323803971      0.88612180769165
  C           2.05536261710183     -2.87141214391912     -0.40355538386892
  H           3.06187535265484     -2.61760685249765     -0.74057415007237
  H           1.63876080855064     -3.66362845814941     -1.02566689048269
  H           2.07354012575526     -3.18663954438570      0.63927222491768
