15
Coordinates from ORCA-job NEB E -31.541838287120
  C           0.71841005853917     -1.26786604868228     -0.18153276224239
  C           1.27425333013147     -0.28966686386533     -1.01007275830529
  Cl          1.72671027513152     -2.17592175047480      0.88849372696590
  H          -0.10845613945264     -1.83969802478569     -0.58270537195700
  F           2.50062013131155      0.19269783922289     -0.65018234686137
  C          -0.38484541715375      0.01876775384119      0.95395002827027
  C          -1.09346294485532      0.74336586516142     -0.00575268003252
  C          -0.38211501155603      1.58972330762643     -0.87078613186198
  O           0.58308977858080      0.43749582575499     -1.75911521435506
  C          -1.08967033303180     -0.89074033075206      1.78815695094205
  H           0.47224245925640      0.47851717158362      1.43728284812674
  H          -2.06231463343918      0.37626858750881     -0.31367755066823
  H           0.42954767326449      2.18347504276622     -0.46740939515059
  H          -0.91692428023851      2.06410706531840     -1.68020124404422
  N          -1.66708494648819     -1.62052544022382      2.45355190117371
