15
Coordinates from ORCA-job NEB_reactant E -31.567979624620
  C           1.24857977055605      0.01158146114022      0.83871545523021
  C           1.78558346910466      1.20726178725576      1.06445008872014
  Cl          2.21883827542581     -1.40532258786966      0.69053338153331
  H           0.19019939048563     -0.14963228210511      0.74757495959237
  F           3.10310707506379      1.37050398277552      1.20559537782287
  C          -0.63902584282015      1.57236534319663      3.22512129286396
  C          -1.07430069472381      1.95114602947555      2.02553339736517
  C          -0.20208225808442      2.48954162422684      0.93372353422872
  O           1.18460871468603      2.40352742716202      1.18599491312038
  C          -1.50960589677769      1.08945026170576      4.22216324550251
  H           0.40704555398761      1.61752026303549      3.49800515617190
  H          -2.12736393394681      1.91129378264697      1.78228417129995
  H          -0.39524494984278      3.56324647279529      0.82117871783029
  H          -0.44846320616080      1.99896594409260     -0.01822745557022
  N          -2.21157546695309      0.69975049046609      5.03985376428843
