15
Coordinates from ORCA-job NEB_product E -31.584053229070
  C           1.01809204392862      0.66401849062549      1.55692790622020
  C           2.33448623689941      0.85271753714871      2.26301152043307
  Cl          0.59505117787530     -1.07464763294698      1.80714357377903
  H           1.14000700783515      0.80659325655499      0.47940347658279
  F           3.32944706100871      0.23453721692304      1.58396963652876
  C          -0.07361150449584      1.58146072603438      2.12112257703480
  C          -1.33597845967135      1.50557311301901      1.29859037905857
  C          -1.94526664410738      2.56449849148405      0.80318426224570
  O           2.56649369327446      1.43313302158160      3.26041613760304
  C          -0.39584658544105      1.20959073706387      3.48784548139048
  H           0.30822531067353      2.61030390339104      2.13405371923606
  H          -1.72501684866768      0.50821822257703      1.15308505480091
  H          -1.57103633303094      3.56425845949481      0.95309177965165
  H          -2.84986745701876      2.47455180543184      0.22785946727798
  N          -0.70137869906218      0.91059265161714      4.54569502815695
