21
Coordinates from ORCA-job NEB_reactant E -41.857893611500
  C           1.21261403612043      0.40589173698910     -0.12724053322897
  C           1.57725555009367      0.32538065032455     -1.40048574132369
  H           1.40375371897308      1.27614628541921      0.47108144354527
  H           0.70716568634511     -0.41368810484315      0.34619168664821
  C           1.30234654836871     -0.91514364562368     -2.22884332756582
  C           4.50248565631764      3.67098898477852     -2.53685763932830
  C           3.22575541879965      3.31252287445477     -2.62030030775869
  C           2.55778678318270      2.48179486887286     -1.57441150104450
  O           2.21276607930887      1.23235907676471     -2.16895933515578
  O           5.22629780052208      4.40348195405217     -3.40220288011103
  H           5.11213576523088      3.40269341771944     -1.68337171894798
  H           2.61093189601011      3.55990174509148     -3.47002591645859
  H           1.63892267819423      2.96833610404131     -1.21787399178002
  H           3.22768561974239      2.31119615058698     -0.72311612480006
  F           0.58811143136745     -0.63749715125811     -3.32839918659233
  F           2.43363504282026     -1.50308216667335     -2.64403635461880
  F           0.61577075209020     -1.84589064475956     -1.55325670096308
  C           4.59825196269232      4.82179687096027     -4.59407038029565
  H           5.35360553537787      5.36909209979566     -5.15471437503058
  H           3.74991459713797      5.47947637106170     -4.38258019175407
  H           4.25450744130441      3.96454252224510     -5.17972692343554
