21
Coordinates from ORCA-job NEB_product E -41.851080342790
  C           2.66475610466757      1.14650032188998     -1.13453594920616
  C           1.55189025866147      0.54799676355515     -1.93765579708892
  H           2.27981955654587      1.46892067006138     -0.16729703551921
  H           3.47838387033449      0.43337439801394     -1.01088098993189
  C           1.98099183646084     -0.48667512452747     -3.02514163383297
  C           3.19644405603522      2.38778170133658     -1.90045821223482
  C           2.19046986140441      3.50571401291769     -1.85370072056547
  C           2.40846926522170      4.65914450370769     -1.25131744710992
  O           0.39000953997583      0.81259595033623     -1.82815804439837
  O           3.45585907923196      1.95381921502251     -3.22070323757396
  H           4.13566203362634      2.71655151606929     -1.42326470639993
  H           1.26100065651763      3.30413832883745     -2.36682134268842
  H           1.66790357043093      5.43968916698575     -1.23521968852524
  H           3.33593201777677      4.86845492654781     -0.74234121444922
  F           1.73766872968497     -0.03579661619532     -4.25621599441036
  F           3.26901690689217     -0.83733362427098     -2.96630663927873
  F           1.27465000009536     -1.62026066110374     -2.87379800866718
  C           4.16670881528615      2.88348034950829     -4.00102291811071
  H           5.14013251962128      3.10993409127688     -3.54969837041374
  H           3.60602716821158      3.81596530610857     -4.12477582020374
  H           4.31260415331747      2.41180480392233     -4.96978622939102
