17
Coordinates from ORCA-job NEB E -30.479885550150
  C           0.52321015816795      1.11984422741298     -0.26032353396237
  C           0.42252994073736      0.50556649708247      0.99883543217285
  O          -0.46122367250948      2.01136790628549     -0.61603302045346
  H           1.52497130815245      1.38795240276434     -0.60429610416749
  N           1.56370610885424     -0.06921797158409      1.55390582789643
  C           0.05518165812719     -0.46449075609355     -1.32500559973267
  C          -1.19893221674511     -0.81250494709396     -0.84328367517760
  C          -1.25760948593084     -1.18240832134611      0.53475245728182
  O          -0.72723635785184      0.06370929334261      1.41329274777749
  F           0.13534437823635      0.05028425818025     -2.58142880589236
  H           0.93440031297039     -1.06715342307782     -1.11511031262619
  H          -2.05803749607368     -0.33845930273386     -1.29187906262861
  H          -0.55600986833538     -1.95653184516855      0.83973794412652
  H          -2.24973859818082     -1.33917441205853      0.93914402052643
  H          -0.48587836157959      2.09269073839560     -1.57856249744560
  H           1.41603009692615     -0.45509324293359      2.47421195629209
  H           2.41929209503467      0.45361889862633      1.46204222601272
