17
Coordinates from ORCA-job NEB_reactant E -30.497825776330
  C           1.56140098711939     -0.33148232285052     -0.36900751362579
  C           1.43017256880825     -1.45265152951205      0.34409137108450
  O           1.67039256770487     -0.34944247217704     -1.74117298992809
  H           1.54128883041640      0.63455244831343      0.11821285461754
  N           1.12027941230082     -1.45761807372185      1.71570769913289
  C          -0.79330924429810     -3.49289952519207     -2.60055012412354
  C          -0.49948746722476     -2.82800211524671     -1.50150812369730
  C           0.32441047081326     -3.40424055959060     -0.39228254576976
  O           1.54821501622596     -2.70009568437922     -0.21573328307111
  F          -1.53435261922883     -2.95313878414277     -3.58233633518393
  H          -0.51114003065465     -4.51159698972088     -2.82535020305048
  H          -0.81761653338528     -1.80292965921268     -1.38576673951280
  H           0.61761023860740     -4.43135815868656     -0.62052801569307
  H          -0.25122634536597     -3.38405515700176      0.54396055234109
  H           2.10573916012690      0.45395918769956     -2.03988116421248
  H           1.56168430481574     -2.22929527806617      2.19951230137156
  H           1.30853868321862     -0.57670532651212      2.17113225932077
