25
Coordinates from ORCA-job P E -31.646296494580
  C          -1.39188445134721      0.39483783441846     -2.36556613055019
  C          -0.38422597249937     -1.81749426256060     -1.06669073224101
  C          -1.73913264356139     -1.90243879535942     -1.69353261191191
  C          -2.21198251549773     -0.85907039776850     -2.35602036639938
  C          -0.95816180822884      0.67130174651253     -0.91767435276308
  C          -0.14664798071014     -0.48890436196906     -0.31406158319434
  H          -2.28429529815274     -2.83072496591602     -1.61803450820970
  H          -3.17399858639858     -0.85934074329468     -2.84458462967987
  C          -2.17081270667352      1.56777803408234     -2.94597918126824
  H          -0.22355585913968     -2.65778075772002     -0.39192958222098
  H          -0.49218994772996      0.24727124428509     -2.97617727948457
  H           0.35782745044612     -1.89044726786671     -1.86915092779073
  H          -1.86326123660220      0.83109755490499     -0.32698166288282
  H          -0.47613897326503     -0.62663951932920      0.72098512589140
  H          -0.37383670198875      1.59172669048685     -0.88586569967262
  C           1.34796122206231     -0.14586499361603     -0.28537794351606
  F          -1.36719889452664      2.67850402905585     -3.05704366163609
  H          -3.00940668767552      1.85031076771644     -2.30046339832313
  H          -2.53382330019061      1.34450133001162     -3.95501153852349
  C           2.19607368889328     -1.20322166035833      0.41250861564201
  H           1.47660597592086      0.80352710069186      0.23993968814723
  H           1.70584054589425     -0.00753167091019     -1.30839047391536
  H           1.82718691648849     -1.38041709627335      1.42065725310170
  H           3.22915137493047     -0.86992512594566      0.48097673793946
  H           2.18024638955214     -2.14467471327825     -0.13009115653822
