25
Coordinates from ORCA-job R E -31.552233377150
  C          -1.36204227849675     -0.01389252720609     -2.96428987469946
  C          -0.03035803006236     -2.72298835776540     -2.72132099747432
  C          -1.22800429485778     -2.38827959635029     -2.25170189526341
  C          -1.84917021587823     -1.07827767809182     -2.32946784934552
  C          -0.54400226581321      1.88152020999487      0.41856620027824
  C          -0.28460332793403      0.59774150422937      0.25600370547788
  H          -1.81944383666127     -3.14183900439450     -1.74709542732350
  H          -2.79191920099891     -0.98134227162044     -1.80511279782804
  C          -2.01764798626824      1.32488737521806     -2.95296392643728
  H           0.35398704582268     -3.72255035435149     -2.61544942383959
  H          -0.43653912402785     -0.05460949039820     -3.51892892957758
  H           0.60913002490620     -2.02237685222305     -3.23011445005807
  H          -1.51874475729792      2.23730997759924      0.70789359848494
  H          -1.06187983298396     -0.13920824944084      0.41217373902328
  H           0.21340347250854      2.63499451558295      0.27329250675110
  C           1.04384174764834      0.03905884588091     -0.13892118108726
  F          -1.79655831628224      1.98931010825174     -4.13771312762023
  H          -1.58900178057105      1.95540820998639     -2.16042123974435
  H          -3.10259835090355      1.25684676765168     -2.82208569884749
  C           1.51359151876754     -1.02640715877435      0.84969955537655
  H           1.78092732193385      0.84160829665322     -0.20181141571181
  H           0.95012530019221     -0.41950125178437     -1.12706903832276
  H           1.60889725024082     -0.60365285695949      1.84744920321708
  H           2.47958383603936     -1.42493743590121      0.54905687781233
  H           0.80000608097779     -1.84663272578689      0.88836188675929
