79
Coordinates from ORCA-job A2R E -102.345041074990
  Ru         -0.06538302758489      2.21043580968565     -0.14424830497735
  H          -0.05544659741045      0.69839181980687     -0.51800073842036
  N           1.10982895304093      1.69738276795444      1.46760605152895
  C           2.38868365521009      1.30788307373772      1.29790192140433
  C           0.60219441840079      1.68343349574862      2.71743219973618
  C           3.17501503785910      0.87989430674798      2.35837704795711
  C           1.33747761076773      1.25181810074965      3.81008952996649
  C           2.64832173184070      0.83779724576256      3.63750949151527
  H           4.19087221500583      0.56906880286224      2.16914176023330
  H           0.88301072226399      1.25039807269799      4.78924984175753
  H           3.23881831189042      0.49765671595019      4.47366967041089
  P           1.97237484905981      2.43757783574536     -1.16145954945407
  C           2.33128206907203      1.75149018715993     -2.89431318795550
  C           2.92459282273074      4.08015346348586     -0.93912851650634
  P          -1.72756591218637      1.88317947544027      1.33469509741208
  C          -3.23686106163243      2.92549147153257      1.55242627009034
  C          -2.44106856050195      0.19478519640104      1.63766004931449
  C           2.95018716819810      1.29645988151535     -0.08842056931139
  H           2.80275681959572      0.29120068831355     -0.50133593154283
  H           4.02402733295766      1.50299029099291     -0.08480656647111
  C          -0.79713786904545      2.18557290871351      2.90422120422568
  H          -1.26673213442889      1.75261976389592      3.79226010436982
  H          -0.76731869238729      3.27731363598196      3.01673417073109
  C          -1.12598501567628      2.63512853416375     -1.58886654795844
  O          -1.80317590806154      2.89860331159199     -2.49098203745206
  H          -0.06107863503480      3.68279109589663      0.33447793164258
  C           3.75502076792198      1.23574020905353     -3.10774371940278
  C           1.37487990554029      0.57614719924688     -3.10162128828045
  C           1.97307350673541      2.82659821108632     -3.92122835186287
  H           3.96027706653946      0.38084565054589     -2.46798563987904
  H           3.85208157818201      0.90488654168132     -4.14193739479514
  H           4.50919735154240      1.99383202016800     -2.93143473286003
  H           0.33944316327921      0.90054822706114     -3.01349321964275
  H           1.52310462167182      0.14891839317159     -4.09324141958380
  H           1.54658507155167     -0.20793654109954     -2.36903768678841
  H           1.01702921638684      3.28217170586839     -3.65801832064829
  H           2.73396694667050      3.60051021082367     -3.98193256961433
  H           1.87511768339756      2.37842434458811     -4.90976942808310
  C           3.01669311328772      4.31129904684068      0.57321538391703
  C           4.33908076703345      4.13387277939040     -1.51202632086809
  C           2.07327914460830      5.19967574956522     -1.54073067118435
  H           3.70771204934384      3.61778145788260      1.05019766595420
  H           3.37041146442296      5.32305432145729      0.77065709617273
  H           2.03415868304826      4.20596726685056      1.03217945963722
  H           4.33845411229145      4.11430321563870     -2.59799943594794
  H           4.80571809910285      5.06963179544818     -1.20223837782373
  H           4.95685857394886      3.31912684521371     -1.13903068491975
  H           2.12632988291430      5.21161779210055     -2.62505512631320
  H           1.03188228293071      5.06769611959292     -1.24690384296346
  H           2.41448070931564      6.16836706122244     -1.17663936020056
  C          -3.49586493132212      0.04140635858877      2.72672623432515
  H          -2.84167288454681     -0.13050582509410      0.67127726453782
  H          -1.57832668060811     -0.44361318668061      1.86160334306752
  H          -4.41811381730524      0.54762543151436      2.45477034610471
  H          -3.72232383489361     -1.01423479970909      2.87053482429158
  H          -3.14901167013358      0.44132966426408      3.67754811189446
  C          -3.00307629399134      4.38104189366625      1.17809570710193
  H          -3.99706211807393      2.49413548780017      0.89099829756763
  H          -3.58190888430872      2.83990659805898      2.58791294901834
  H          -2.62721477851820      4.44427595223267      0.15789340275146
  H          -3.93110377810041      4.94631710258023      1.24882532719249
  H          -2.26852199162333      4.84162269684902      1.83559476255428
  C           1.57548146896497     -2.14268854671659     -0.13807934007362
  O           2.73033101983411     -1.89569945069143     -0.42603909751643
  C           0.58934077201001     -2.51903043696915     -1.17469730386105
  C          -0.78683568530069     -2.42784293244287     -0.97697450343204
  C          -1.65577593629292     -2.73866433502580     -2.00555385691147
  C          -1.16818320795356     -3.15612289850206     -3.23344353008307
  C           0.19865459504645     -3.25608384402249     -3.43790606645788
  C           1.07067928094484     -2.93217848738675     -2.41835693429015
  C           1.08677659549987     -2.03834497851455      1.28322136593490
  H          -1.18273272177487     -2.08768709419360     -0.03415861491892
  H          -2.72136023688389     -2.65144962194687     -1.85157770171144
  H          -1.85386879682701     -3.39876184195628     -4.03193047590593
  H           0.58166000691829     -3.57921608639269     -4.39459979922990
  H           2.13977030698610     -2.99342739209733     -2.56179807497150
  H           1.93675407718941     -2.00005759518552      1.96114569184852
  H           0.43435969361169     -2.86719111478806      1.54381536903415
  H           0.53202436584186     -1.10385829317177      1.37477989587275
