79
Coordinates from ORCA-job A2S E -102.348867037390
  Ru         -0.11834234570074      2.12064219271149     -0.24919033125047
  H          -0.09840857581983      0.59298436381947     -0.53773640407730
  N           0.97460332292872      1.68830680275087      1.44346061211300
  C           2.26737211811877      1.31891339995463      1.35533293082935
  C           0.42062710356712      1.77157603207877      2.66863135703046
  C           3.03402060724196      1.05039877379910      2.48043684083111
  C           1.13167837790214      1.48859793987910      3.82405756117261
  C           2.46679458406207      1.13165076438956      3.73983005536860
  H           4.07058902846860      0.77358029464096      2.36011800042068
  H           0.64059239368931      1.56720046075628      4.78212812339996
  H           3.04590141328796      0.93026923004382      4.62745033381073
  P           1.96543723233038      2.27613138917296     -1.18560389121012
  C           2.39750076680772      1.49441623992358     -2.86009745508667
  C           2.92872674451198      3.91819299595559     -1.00732671907184
  P          -1.84410350378720      1.85831234958430      1.16466376297370
  C          -3.37964042835287      2.87961532073601      1.27039594771312
  C          -2.52821520242386      0.16754269485012      1.48735336545515
  C           2.86549373332919      1.17469658710005     -0.00626870551498
  H           2.66025716490621      0.15439930101675     -0.35686469749111
  H           3.94825264821266      1.32474669161277      0.01040298847544
  C          -0.99853368563688      2.24229736059102      2.76172653411310
  H          -1.50152856960333      1.83252610081618      3.64237445538085
  H          -1.00022123192730      3.33812197697206      2.83432932298531
  C          -1.10438053140636      2.49302753878693     -1.75907418649854
  O          -1.73886522971563      2.72667973736540     -2.70037572123069
  H          -0.12550899811400      3.61457142702465      0.16493714284638
  C           3.82486213721600      0.95869572901799     -2.97826870906750
  C           1.44418610031542      0.31380190865649     -3.05008761647040
  C           2.09586097065030      2.51614553172177     -3.95734619711388
  H           3.98862183946723      0.13635512786992     -2.28615479801163
  H           3.96748518804814      0.57315517475867     -3.98796893211371
  H           4.57816360895151      1.71846121091112     -2.80603721195981
  H           0.40873366706336      0.64737624528054     -3.00705676179114
  H           1.62334834042347     -0.14853974649954     -4.02076445241198
  H           1.59856303517457     -0.43914937336131     -2.28216036764673
  H           1.13180181844681      2.98944564053026     -3.76327503909682
  H           2.86407147295623      3.28236693537819     -4.02263802696915
  H           2.04132357463520      2.01766288891577     -4.92498292867475
  C           2.95800607736770      4.23118222730959      0.49250211334943
  C           4.36774060154566      3.92896294724317     -1.51794648249155
  C           2.11624754164447      5.01052576340957     -1.70516926475020
  H           3.62422661697317      3.56137550793234      1.03408701110199
  H           3.30984158008048      5.25070572901628      0.64963802773854
  H           1.95646447495611      4.15555261955347      0.91470110214573
  H           4.41608237470376      3.85012834070547     -2.60008759771035
  H           4.83012406115237      4.87634929472074     -1.23839729998928
  H           4.95863398285307      3.13066606987879     -1.07269086554600
  H           2.21651783323330      4.96365140942559     -2.78517196334493
  H           1.06167919060061      4.90240526764065     -1.45070991294437
  H           2.45108834065861      5.99477284784398     -1.37887811697032
  C          -3.58245328506221      0.00317203342533      2.57457746118538
  H          -2.92211993329791     -0.17518062731503      0.52391841727048
  H          -1.64772112464623     -0.44610108599490      1.71221677030699
  H          -4.50523849275463      0.51278631371068      2.30981977476255
  H          -3.80889715599168     -1.05400367264136      2.70539159502159
  H          -3.23395032114175      0.39037913097524      3.52976566138025
  C          -3.15097092588715      4.31998641701122      0.83776464581854
  H          -4.10461930032845      2.40438504161750      0.59960272383089
  H          -3.76636368613440      2.83497556169607      2.29383857863542
  H          -2.72627980503051      4.34047051503219     -0.16498786972913
  H          -4.08935997755086      4.87234317259334      0.83621794144109
  H          -2.45556597299593      4.82330674842212      1.50643429531093
  C           1.09302708590629     -2.28632636452512     -0.08998472828840
  O           2.19778896656742     -1.94312917373208     -0.46152155492513
  C           0.75551013685688     -2.31981125111350      1.35627126739891
  C          -0.51414062929916     -2.63077616851449      1.84041655505255
  C          -0.75940142870884     -2.62728318715285      3.20203084057681
  C           0.25249737174640     -2.31926104902868      4.09642560132719
  C           1.52057851990894     -2.01940238838621      3.62624476745814
  C           1.76740694975557     -2.01872763499735      2.26827898467905
  C           0.01711130235150     -2.66805425149962     -1.06730389488717
  H          -1.31621478992901     -2.87377198839550      1.16106391733574
  H          -1.74710338788607     -2.86656359761642      3.56888237379050
  H           0.05357558544505     -2.31912179381411      5.15816127891485
  H           2.31539391599239     -1.78961590962436      4.31994464929490
  H           2.75066167687228     -1.79002560595450      1.88464771066241
  H           0.44776062949425     -2.76993362670207     -2.06032258367348
  H          -0.71682144267251     -1.86220771011261     -1.08995626183455
  H          -0.47366384757405     -3.59386111155480     -0.78066585086619
