79
Coordinates from ORCA-job A3R E -102.314881941340
  Ru          1.75480359166448      3.51045145296519     -0.24039393442216
  H           0.47646491105732      2.12405637845854     -0.33422557838635
  N           2.12843850004610      2.36173924137703      1.45871225226149
  C           2.63415532273904      1.09691984644474      1.26545156918097
  C           1.73219269165617      2.74477208662435      2.67633030375207
  C           2.67354974780482      0.19915872883350      2.37241306765386
  C           1.76761141563213      1.90645067186272      3.77234415866040
  C           2.24660273196376      0.59984031431935      3.60270884907703
  H           3.05549779482581     -0.79699828139959      2.20638277189214
  H           1.44076461274480      2.25483451692245      4.73870016654623
  H           2.27887125612340     -0.07466703448350      4.44603683813794
  P           3.30416989629839      2.03850560805934     -1.14968854519361
  C           3.06852727553922      1.36232302633463     -2.90980561391234
  C           5.14269803515733      2.53507740437752     -0.91512282178630
  P           0.57045366579773      4.80737759511713      1.24720485490464
  C           0.89378863188584      6.62414372008650      1.39129416563374
  C          -1.27361723585525      4.85166695469285      1.51720318779747
  C           3.03432251799217      0.70375881760134     -0.01473640721794
  H           1.21948097942570      0.02687640403736     -0.44613080818991
  H           3.54744177368585     -0.24282666036451     -0.13183618975475
  C           1.27266840343419      4.16978573905581      2.83541364418234
  H           0.57805950248370      4.26707454613186      3.67336737238029
  H           2.15190279622668      4.79335645264131      3.04326909802463
  C           1.42917719178698      4.52364570257072     -1.74201992183762
  O           1.26406823151612      5.22256060174144     -2.64879035532586
  H           2.89579671255367      4.43086104724182      0.10196157295827
  C           3.51003796142028     -0.09385624805802     -3.03732973662380
  C           1.57249827997282      1.44824879895770     -3.23066986964382
  C           3.79153369946055      2.24910032323379     -3.92244941206077
  H           2.90009936918812     -0.73426923809380     -2.40408740776073
  H           3.37896670581977     -0.42076230181116     -4.06873528059080
  H           4.55369219482168     -0.22909643837471     -2.77016155025359
  H           1.20492621619628      2.46795258869097     -3.09797769668650
  H           1.40391818997753      1.16617915484629     -4.26970306506095
  H           0.98776392083822      0.77402108701483     -2.61197750930516
  H           3.54855659169967      3.29545117967974     -3.74077336374146
  H           4.86890063411956      2.11875354989750     -3.88770186552008
  H           3.46224770078092      1.99444371222831     -4.93000870692389
  C           5.31759500082181      2.72414843951354      0.59505315533160
  C           6.12418153393210      1.45454409696092     -1.36416720707263
  C           5.43463345618912      3.87276100997023     -1.59549045093757
  H           5.18849810888706      1.78439536454704      1.12881354607753
  H           6.31722003877533      3.10049998790300      0.80898482753796
  H           4.59173695275580      3.44421532193694      0.97452913597902
  H           6.14743318708565      1.34020337242361     -2.44423874695117
  H           7.12952515120553      1.72266647935881     -1.03863026116882
  H           5.87085490968915      0.49707139938395     -0.91157207003416
  H           5.59456866271087      3.76527887445378     -2.66283586221436
  H           4.60106550229876      4.55797909898270     -1.43230497267977
  H           6.33294175356624      4.31627451146225     -1.16720332327008
  C          -1.79377866203307      5.64428669115081      2.71079068342282
  H          -1.68966620643431      5.26562830936432      0.59182004971092
  H          -1.62583016815695      3.81876159887058      1.58285957546178
  H          -1.60445320472232      6.70776592707266      2.59518831013126
  H          -2.87020197565585      5.50240812548827      2.79290341318860
  H          -1.34248125766983      5.31058692051175      3.64253168429523
  C           2.29554031047692      7.03542740244958      0.96720132994115
  H           0.15837868339957      7.12391662091619      0.75268677427071
  H           0.71160272149132      6.91825594629679      2.43047897992645
  H           2.46307130330127      6.77246152210724     -0.07631613210467
  H           2.42306599772786      8.11029855306708      1.08356754809432
  H           3.05052202316844      6.53225795690289      1.56861323356830
  C          -0.28169702256508      1.26073389083941     -0.28879511890790
  O           0.29091698478799      0.07976494903996     -0.78057845020406
  C          -1.45471610505856      1.64545264688549     -1.15724984682442
  C          -1.65913063881523      2.95683889625007     -1.55684549120958
  C          -2.75636591024642      3.29342356156074     -2.32883852760310
  C          -3.65592607396095      2.31544502878053     -2.71677936423957
  C          -3.44975459953837      1.00087305491041     -2.33329529693280
  C          -2.35702919683680      0.66673273523910     -1.55507524498949
  C          -0.74377166680676      1.03193989889099      1.15766539654818
  H          -0.94199703540669      3.72293095780253     -1.27137882384295
  H          -2.90275047451433      4.31862992184481     -2.63579567885297
  H          -4.51052149803202      2.57595511665220     -3.32362126520916
  H          -4.14269612085848      0.23227614869501     -2.64274667569826
  H          -2.18137267296924     -0.35754002635482     -1.26398941106043
  H           0.05442028482604      0.57897029259726      1.74267026757641
  H          -1.58836272786920      0.34527788051988      1.14874427516639
  H          -1.04787176742780      1.95745046529012      1.63787780293445
