79
Coordinates from ORCA-job TSA2R_3R E -102.309789836500
  Ru         -0.60090092569557      0.54383553615729      0.06158949074778
  H          -0.18421403136043     -1.20080356659951     -0.10874866828615
  N           0.61049083629306      0.37308675271829      1.75175854342428
  C           1.91462290727757      0.05653480498069      1.55762942885449
  C           0.10922512016412      0.44071983212562      2.98807807485152
  C           2.72295432585667     -0.27051428604511      2.66275794692560
  C           0.86716520871972      0.13440191554784      4.10644175518525
  C           2.19691779739394     -0.24111765665147      3.93090204999891
  H           3.75138859057076     -0.54776046618932      2.49150968911188
  H           0.43059206540606      0.19058806730168      5.09080367193360
  H           2.80552180044453     -0.49613325302391      4.78560399852084
  P           1.44893354002350      1.06917868603285     -0.90259056761018
  C           1.91152642868768      0.52954600603441     -2.66141515459229
  C           2.11592478898600      2.83801806784299     -0.59668338889170
  P          -2.24682678261695      0.23324715649466      1.64484961866488
  C          -3.78925674680812      1.24991413158174      1.64061441910629
  C          -2.90191075061506     -1.35727373433835      2.35817923244568
  C           2.40802381944198     -0.00240579732492      0.20181612328149
  H           2.05517994947173     -1.24585121410830     -0.19844099643567
  H           3.49204038217188      0.02334812315792      0.10970781973667
  C          -1.31742526437274      0.89090774360729      3.10745943293325
  H          -1.75513811323043      0.59373242507608      4.06349592463287
  H          -1.34973564692215      1.98423252763767      3.02569179222106
  C          -1.68008493452290      0.70370506336990     -1.42208300475639
  O          -2.38916695854697      0.87300398473286     -2.31848124136264
  H          -0.82891055110078      2.02113631507768      0.35681708372323
  C           3.36616700160600      0.07756641705760     -2.77743690073850
  C           1.01451927623136     -0.66088373600588     -3.00905642445227
  C           1.59114519231762      1.64379432104728     -3.65785066661100
  H           3.53073011724403     -0.81621178715291     -2.18084979211621
  H           3.57741981542627     -0.17116215512928     -3.81711903877824
  H           4.06784771302850      0.84558402532513     -2.46735520431681
  H          -0.04044973091816     -0.40140774433653     -2.90765692072363
  H           1.18827072240559     -0.96353031057136     -4.04097432539826
  H           1.23737220291434     -1.51361596219893     -2.37315231851516
  H           0.58758444399624      2.02804536863365     -3.47629834541784
  H           2.30499130827052      2.46108129428407     -3.60888413705906
  H           1.62062201671576      1.24276527988296     -4.67080378356457
  C           2.05398419365891      3.07407928386095      0.91538604038394
  C           3.56293360656830      3.04075477620449     -1.04035599257035
  C           1.18433771009489      3.85181928908752     -1.26344678652142
  H           2.74082369921809      2.42227270079688      1.45269128489495
  H           2.32983234239602      4.10474161542523      1.13709992217274
  H           1.04225107974249      2.90809241776998      1.28493431714664
  H           3.67121474368590      3.00286948321131     -2.12014484988606
  H           3.90420707922702      4.02188983877655     -0.70931038649961
  H           4.21482156811783      2.29304961131881     -0.59149998433417
  H           1.36790776794947      3.93995980842874     -2.32856769708556
  H           0.14625237642616      3.55226700733290     -1.10987193692977
  H           1.32696923349742      4.83595014983062     -0.81853020270038
  C          -3.99114167173126     -1.25095815783575      3.41992559513878
  H          -3.26373226891750     -1.96508317332764      1.52290563818764
  H          -2.02998696683194     -1.86446418327164      2.78356194917298
  H          -4.92671869275647     -0.89739879232157      2.99540357198152
  H          -4.16930031789421     -2.23584070608334      3.84872953886025
  H          -3.70124483641949     -0.58271616341241      4.22814689505034
  C          -3.61964851956689      2.61204455598105      0.98483743973265
  H          -4.53516137762629      0.66876346380373      1.08782197493334
  H          -4.13146614496919      1.36492291648909      2.67378756480342
  H          -3.27349620989349      2.49634693850810     -0.04111580835458
  H          -4.56883426131008      3.14487244349725      0.97751355376837
  H          -2.89050151595666      3.21618090300079      1.52060685174308
  C           0.22643076081811     -2.33287337731608     -0.17796475945326
  O           1.52230138922727     -2.35391132109023     -0.53527250549082
  C          -0.68041173370079     -3.01318893822050     -1.18606287698819
  C          -1.99763346834568     -2.61851855997593     -1.36871697850547
  C          -2.81255011734869     -3.28707700150543     -2.26297576588621
  C          -2.31608398558473     -4.35931400221179     -2.98576693149092
  C          -1.00142565436205     -4.75540386024544     -2.81163148538882
  C          -0.18830690482518     -4.08717498463187     -1.91460409816008
  C           0.00225999771815     -2.99884420820956      1.19623923169879
  H          -2.38572081811126     -1.76549106500188     -0.81711035184713
  H          -3.83474608747375     -2.96564351377951     -2.40302825221721
  H          -2.95205887201901     -4.87895896079939     -3.68775650463071
  H          -0.60700643522076     -5.58698496815869     -3.37762948605416
  H           0.84264824858957     -4.37570166641153     -1.77435942031916
  H           0.41313869014636     -2.39311131846202      2.00350057475399
  H           0.53414606520954     -3.94899852579118      1.18308175907257
  H          -1.05244062578132     -3.19252193129295      1.36972414114511
