79
Coordinates from ORCA-job TSA2S_3S E -102.304645204690
  Ru         -0.85230098610487      0.43941180199017     -0.65990345187195
  H          -0.49255794382579     -1.38643627117209     -0.55329500545317
  N           0.19205598470507      0.32160805125366      1.13403449601574
  C           1.51243967092851      0.00398054799340      1.06532055124930
  C          -0.42555104952545      0.35930013116096      2.31727320910734
  C           2.22693488204911     -0.26684126644163      2.24746880478411
  C           0.24453310453032      0.12157791226972      3.50654254015865
  C           1.59669554105382     -0.20158469286926      3.46412979321970
  H           3.27065404654467     -0.53040244907667      2.17449077494843
  H          -0.28354745178376      0.17442976851671      4.44506271888035
  H           2.13675607475732     -0.40171508112882      4.37713996192137
  P           1.28338288744943      0.87420945276227     -1.48194120448198
  C           1.86983767703149      0.22375207787205     -3.16524659575201
  C           1.96162881928965      2.64668870764385     -1.22681054186872
  P          -2.68390295230328      0.37604688441239      0.69868544738341
  C          -3.93370729146679      1.74669070806444      0.62525038447291
  C          -3.94347664859464     -0.99480602108903      0.89261451253128
  C           2.13476837844096     -0.12160411782779     -0.23165021320993
  H           1.81441560966764     -1.38861139460667     -0.64478782632123
  H           3.22273172931102     -0.08906998806131     -0.21813971776356
  C          -1.89216864014951      0.69721115251560      2.34669942070827
  H          -2.38994288369973      0.17547556298947      3.16659394443629
  H          -1.99492989128437      1.77521207794388      2.51936549633059
  C          -1.83324415826682      0.45343298694509     -2.21951632695253
  O          -2.52053692467540      0.48971737754975     -3.14818643155400
  H          -1.01452784394258      1.94219828032314     -0.53389237421906
  C           3.29504376993428     -0.32274009833034     -3.10922659327673
  C           0.92345421412848     -0.91893003553582     -3.54157639448297
  C           1.72739407231753      1.29441105606982     -4.24706227666117
  H           3.33393493523528     -1.20506849349203     -2.47566639684216
  H           3.60459457553136     -0.61550994498165     -4.11217261090890
  H           4.00465329436760      0.41188891287277     -2.73986679849811
  H          -0.10227684675799     -0.55832394223517     -3.62172418418329
  H           1.21365893948171     -1.33361048250511     -4.50634503651607
  H           0.97391303958627     -1.71921085210474     -2.80581496842652
  H           0.73812326898231      1.74749217300207     -4.19551287203026
  H           2.48431883399620      2.06936281784908     -4.16886780892941
  H           1.83447728662352      0.82992382865567     -5.22733391879493
  C           1.75672319966331      2.98262201692687      0.25387958619587
  C           3.45237841356786      2.78040684480914     -1.53155058170783
  C           1.13831912256256      3.63999705091357     -2.04923704971045
  H           2.37363526239271      2.35699005078266      0.89652516934876
  H           2.03165195167556      4.02129810898331      0.43576891195111
  H           0.71046048548958      2.85482810571707      0.53397488507650
  H           3.67118775501195      2.64904978054428     -2.58687668573487
  H           3.78778247169209      3.77775380365466     -1.24630812742273
  H           4.03175263451973      2.05838334861829     -0.95871310438651
  H           1.44752486924792      3.66786831590981     -3.08823508294421
  H           0.08269242094988      3.36892480447739     -2.00399431380445
  H           1.25217002542865      4.64397420778304     -1.64183515783057
  C          -4.52241413691693     -1.21594946488932      2.28458323829362
  H          -4.74301610094031     -0.72280934539965      0.19460345732829
  H          -3.51078934997047     -1.92519886944147      0.51499392634711
  H          -4.89360918474894     -0.28721134111724      2.71335982177833
  H          -5.35401988049786     -1.91607563932449      2.22553829905286
  H          -3.78092839728068     -1.63942645449012      2.95875130632328
  C          -3.38068101530081      3.15889766630244      0.52247013876905
  H          -4.53832428025896      1.54024692980107     -0.26441447899811
  H          -4.58001043965023      1.65547461871682      1.50596602571847
  H          -2.74712432383341      3.24629691389630     -0.35823148071255
  H          -4.19989655974102      3.87012956034717      0.43407899627294
  H          -2.79148414530232      3.42905804592438      1.39669758354255
  C           0.04838686336432     -2.47202286235305     -0.41070559039025
  O           1.25073063251640     -2.47599418470243     -1.00670180086612
  C           0.14523422565205     -2.78674226899132      1.07552780627607
  C          -0.88487248648978     -2.54760055967834      1.97057755026084
  C          -0.77532010102102     -2.93117430812009      3.29464759466186
  C           0.37494280505844     -3.55420311001566      3.74502089178463
  C           1.41343848814150     -3.79050282090845      2.86105660104600
  C           1.29721843528431     -3.41308618264865      1.53713983188217
  C          -0.91208857102632     -3.47113675317958     -1.07388252096948
  H          -1.77808940451393     -2.04647177745693      1.62862391043938
  H          -1.58938014435897     -2.74182061935218      3.98126412092398
  H           0.46122644685706     -3.85238322637220      4.77986542744438
  H           2.31606886181723     -4.27562188722440      3.20342537364959
  H           2.09651218127199     -3.59936862703740      0.83500699374820
  H          -1.03711520512988     -3.22092557620014     -2.12485885647024
  H          -1.88250004195478     -3.47006705764905     -0.58270297538763
  H          -0.47610290679104     -4.46596437675401     -1.00123214792896
