18
Coordinates from ORCA-job NEB_reactant E -40.025083127780
  C           1.61294587061363     -0.11622843597984      0.06487536812313
  C           1.56885260348650     -1.12068232101354      0.93574694187450
  I           1.87437581746724     -0.22550495672264     -2.01359291972747
  H           1.45809674427998      0.89740962883877      0.38798272344509
  C           1.26715517292230     -0.89118419520995      2.39363965533939
  C           2.90658394662719     -5.45095040033560     -0.02759696575992
  C           3.22310280829534     -4.24198130359308      0.42053092687096
  C           2.67054262370744     -2.98685572698940     -0.16710329203053
  O           1.75123742311398     -2.44537960064292      0.79194777870132
  O           3.35400379156002     -6.61799280586455      0.46189120342439
  H           2.25452417024181     -5.60223828442225     -0.87659168323484
  H           3.86650769545572     -4.11938056980926      1.28150855990493
  H           2.14235880344829     -3.19853570766856     -1.10107620188756
  H           3.47144223070620     -2.26210602823066     -0.34822802165533
  Br          0.84758105608274      0.91679320532042      2.91458317847046
  Br         -0.23466885318659     -2.03774877579190      2.89539649667799
  Br          2.83401677297230     -1.47491465895203      3.41651745701451
  H           3.92074132220591     -6.46761906293301      1.23046879444896
