18
Coordinates from ORCA-job NEB_product E -40.028250845620
  C           2.04797224263182     -1.94140378339951      0.61218311291643
  C           0.83046144312345     -2.05222719797590      1.48203627093894
  I           1.52687037939275     -0.82058708487895     -1.14260467650899
  H           2.87222585588165     -1.42090851308500      1.09897488529199
  C           0.97956857477893     -1.49990011174711      2.88932329669915
  C           2.46626346909015     -3.37991278131224      0.25324362523928
  C           3.78739783951415     -3.38974260517960     -0.45547762858265
  C           3.92421789838229     -3.63330983034898     -1.74493000761925
  O          -0.20964785990553     -2.52234211115093      1.12873812306466
  O           2.51547778346968     -4.04116263542606      1.50225347312545
  H           1.68104848062112     -3.82424550222846     -0.37894691984206
  H           4.63613897184747     -3.17157792490813      0.17918080389102
  H           3.07676540567803     -3.84818881154491     -2.37513738395009
  H           4.88756596305671     -3.61929364478857     -2.22327276156277
  Br          1.07009959625512      0.44461740632649      2.65817732370682
  Br         -0.56871446985570     -1.95366581890132      3.94227567596231
  Br          2.57726588823377     -2.09833327769777      3.78888005476744
  H           2.93262253780412     -4.90371577175306      1.39740273246233
