21
Coordinates from ORCA-job NEB E -52.982945194990
  C           0.53079265949196     -0.00063591713537      0.97292102732601
  C          -0.79604785645808     -0.46721616809001      1.12264877270722
  C           0.76526924474394      1.35273635927255      1.36968900040797
  H           1.33297899789951     -0.66966620283121      1.28128456256227
  C          -1.07561874354407     -1.89677175447889      1.44703048295900
  C           0.64871969864395      0.16897141788000     -0.91818595636729
  C          -0.44091274417364      0.98502871887612     -1.23320515624842
  C          -1.75175159625543      0.50544937285217     -0.88890221792167
  O          -1.78999096546857      0.23163327682208      0.64906142678694
  C           2.03482903554345      0.68831756733372     -1.24170825794485
  H           0.59113415186142     -0.89258199945248     -1.15289203906511
  H          -0.28426693118968      2.05011312536250     -1.32242080097376
  H          -2.00726870548141     -0.47140442785961     -1.30165827778693
  H          -2.55624826025468      1.22011161923616     -1.02618940739197
  N           0.91374572421876      2.42887838256214      1.72100641404231
  Br         -0.03473113860945     -2.53141406713395      2.95988081241499
  Br         -2.96144590872129     -2.13978023112891      1.79702410850406
  Br         -0.60786855248489     -3.08691745740913     -0.13780755947413
  F           2.97757293549036      0.13142954456590     -0.46815494022276
  F           2.35550779485613      0.38365937931363     -2.50882628795146
  F           2.15560115989172      2.01005946144259     -1.12059570636243
