21
Coordinates from ORCA-job NEB_reactant E -53.019566938100
  C           2.41953115725108     -0.35907670767325     -0.48895045356799
  C           1.64334282632027     -1.13939106429646     -1.25668553905975
  C           2.70849678142568      0.99801123380862     -0.70390422866378
  H           2.89068449934319     -0.76595143324833      0.39454380693426
  C           1.39483810824558     -2.59155342641781     -0.96525359974049
  C           3.26933622419277     -0.04883792835054     -3.86590214949236
  C           2.32891005542253      0.82406346336894     -3.54441563866508
  C           1.01333122661086      0.46120861134743     -2.92887131615289
  O           0.96647529480353     -0.84109653993447     -2.38065545428416
  C           4.57660960010746      0.35454226200106     -4.47153191098930
  H           3.18027230057544     -1.11520410604240     -3.71829321167720
  H           2.46791153690793      1.88045297909865     -3.72468355259092
  H           0.24110305060873      0.45375154155606     -3.70660245567493
  H           0.73416205909153      1.20407051399042     -2.17313238192072
  N           2.98044638422709      2.10581128689692     -0.82648154320135
  Br          2.13128582016298     -3.24591554736464      0.69272881454863
  Br         -0.53912053732015     -2.90163704650469     -0.94435181479113
  Br          2.16518002021574     -3.64334852477819     -2.44171766238927
  F           4.65754203613760      1.65976801237757     -4.74773381351388
  F           5.60473544436416      0.06469299351636     -3.65422959582318
  F           4.81332611130597     -0.30036057335125     -5.61997629928449
