20
Coordinates from ORCA-job NEB E -33.647012521670
  C           0.56160420859389     -0.48035974247897     -1.29069862495471
  C          -0.50817585348146      0.35812942428734     -1.02337354356767
  F           0.34075506188585     -1.78431031882426     -1.60242620398046
  H           1.43525425219828     -0.09851047897453     -1.80354926023441
  O          -0.19884584222316      1.69316658644659     -1.13326671853728
  C           1.15917989268199     -0.85237212841115      0.73274169130108
  C          -0.07119880968999     -1.32845044795433      1.17492313473264
  C          -1.17092256101115     -0.46462274465654      1.25387386087691
  O          -1.55727029272159     -0.02471385812834     -0.41287068799778
  N           2.24424023091102     -1.68920239070648      0.63205725696731
  H           1.42025715563915      0.18348934075015      0.91725507133688
  H          -0.25701141705756     -2.38901147892348      1.08479927216241
  H          -1.00035458616933      0.54044605358831      1.61842990746808
  H          -2.12497333168716     -0.88090405560637      1.53876285380332
  C          -1.15996489453729      2.60892779544754     -0.64059199590481
  H          -1.07735883585490      3.50626625674712     -1.25132491723952
  H          -0.95176561971219      2.85790941375242      0.40414095056421
  H          -2.16556340679488      2.19063833116912     -0.71751012206127
  H           2.02406892918050     -2.63287659667526      0.34714057305494
  H           3.05804571984997     -1.31363896084888      0.17148750221014
