24
Coordinates from ORCA-job NEB E -56.971008230470
  C           0.42116867509790     -0.32331203627398      0.54225328652028
  C           0.44110985014508     -1.68151712511015     -2.26116322708566
  C           0.78391053646992     -1.01765746526712      1.75863298735769
  H           0.44232602064385     -0.86522729532868     -0.40711411002580
  C           1.35958451110228     -2.91093610625154     -2.42667568928502
  C          -0.07423990884947      1.06437959372337      0.51366650928253
  C          -1.57526683482281      0.82143420419702      0.31941926134291
  C          -2.16860476111092      0.77024737409384     -0.85870615304511
  O          -0.11774585042602     -1.12115459636510     -3.14711906114577
  O           0.21652110155887      1.76855651685938      1.68061071116910
  H           0.31409515701178      1.59011211492130     -0.37583173560978
  H          -2.10202275290497      0.65972061977527      1.24791365866479
  H          -1.62951991566920      0.89640185315416     -1.78264570410851
  H          -3.22802758936112      0.59703179487616     -0.94074082521793
  Cl         -0.44475207178547     -0.83151109298105      3.04962412835448
  Cl          1.04729932511503     -2.74603129693792      1.47547692190204
  Cl          2.32839051154333     -0.31336270151294      2.41321371930723
  F           0.79064385555974     -3.97866190334559     -1.86098798134996
  F           1.63295491180297     -3.23096520446323     -3.70121419490552
  F           2.52884560028907     -2.69646637857663     -1.81631534703565
  C          -0.17193107043484      3.12185279792765      1.64082012897233
  H           0.33537205154345      3.65416859878930      0.82805804836499
  H           0.12457289818184      3.54775773792666      2.59641728757272
  H          -1.25468425070030      3.22513999616983      1.51240738000360
