24
Coordinates from ORCA-job NEB_product E -57.129857597500
  C           1.66532822375249      1.55253645276473      0.00807885694295
  C           2.99809468288837      1.67077172341495     -0.71300237888685
  C           1.87533678145041      1.21167201316656      1.48155231643509
  H           1.07067919936826      0.74773224877478     -0.43595046388036
  C           2.85735207464799      1.68410327919308     -2.27056389699225
  C           0.95676393399262      2.91634342421287     -0.27715762410243
  C          -0.18407803784394      3.22911564477117      0.64984492974360
  C          -1.45113445875869      3.10914050890063      0.30060579185009
  O           4.07949798099616      1.74702946002697     -0.22415315980202
  O           1.98810052573124      3.88341761830747     -0.21310111720462
  H           0.56501437671052      2.86357728838402     -1.30803823720015
  H           0.10467795045365      3.60886359889021      1.61861045396049
  H          -1.74202207228506      2.74237152670644     -0.67030426154873
  H          -2.24830966863590      3.35664126513569      0.97886519135518
  Cl          0.31652375383689      0.80756127180465      2.23795853303484
  Cl          2.89418002184689     -0.25300064062303      1.59746190345540
  Cl          2.64265746562351      2.51880050506549      2.37620173258302
  F           1.76091162635863      1.02812909355222     -2.68997872273298
  F           2.76942507932036      2.92330182583254     -2.76243408464613
  F           3.90572551182293      1.09809368584748     -2.84178923840203
  C           1.61447791194294      5.15236009894836     -0.70102509775372
  H           1.31718828916983      5.09230597470951     -1.75353230799129
  H           2.49768924304838      5.77889596531101     -0.60626112356112
  H           0.79261960456152      5.57793616690222     -0.11738799465600
