24
Coordinates from ORCA-job R E -27.598540617900
  C          -1.24406613684876     -0.33374529568674     -2.94434916483457
  C          -0.17372870632606     -3.14481151404314     -2.52781357984105
  C          -1.32346447437941     -2.65293901925502     -2.06952029766281
  C          -1.83045682197627     -1.31192712942907     -2.23838437013443
  C          -0.49597656390073      2.18108785148757      0.60584601677221
  C          -0.28335262114736      0.96918476984200      0.12896934930202
  H          -1.96433980623077     -3.30460545794806     -1.48708098757818
  H          -2.76882263891333     -1.09297987107749     -1.74324401546240
  N          -1.78340566984210      0.91625604857673     -3.13973237501425
  H           0.11617968903325     -4.16322925836220     -2.33518609573695
  H          -0.31953394882332     -0.50578285461595     -3.47583981905026
  H           0.51794126151612     -2.55924244412475     -3.10827207941706
  H          -1.48174192929959      2.53440743979103      0.85834874950676
  H          -1.10851999475589      0.28486657951781     -0.02009569326934
  H           0.31280470793861      2.87556560117215      0.76821968161415
  C           1.05586416643779      0.41767726194712     -0.23989035833730
  H          -2.53057761274308      1.16886724811444     -2.51046710871076
  H          -1.13725927410836      1.66523923714386     -3.32731037742359
  C           1.29234356097553     -0.94290640534482      0.41191746775525
  H           1.84124280903837      1.11771570544700      0.05266950027974
  H           1.09803426164634      0.29292906742361     -1.32625723719490
  H           1.23653357644538     -0.86047606731146      1.49514816914378
  H           2.27397855284111     -1.32688034445813      0.14440022869388
  H           0.54214361342255     -1.65557114880649      0.07609439660006
