20
Coordinates from ORCA-job NEB E -36.417418480470
  C           0.40158853619784      0.85789073310757      0.02310591818832
  C          -1.00259136829483      0.96154843223583      0.54109631793154
  O           0.50140451164261      1.12419253307361     -1.34310253207421
  H           1.05551147564093      1.55385088308159      0.58172887348339
  N          -1.81403849093164      1.98421480179599      0.14060426744281
  C           0.93503748734760     -0.59597138975741      0.33011190768181
  C          -0.10599698895258     -1.53275975202956     -0.07491707351255
  C          -1.45159612293313     -1.31882457217891      0.46742187914343
  O          -1.55937481652204     -0.09380276850100      1.19086666267768
  C           2.29327076047544     -0.83221608880264     -0.30902428600225
  H           1.00980001518186     -0.61254819451590      1.42784087376146
  H           0.04518811444653     -2.23790001395631     -0.87385680017657
  H          -1.73156267384633     -2.09283035495539      1.19538177055428
  H          -2.20679159809512     -1.35402576803600     -0.33841559392141
  H           0.02457130879076      1.96894557085758     -1.48642326868942
  O          -3.00153332052280      1.98535351594289      0.45848734555450
  O          -1.27356556816308      2.89303923444950     -0.52936555983003
  H           3.02102120227175     -0.12884324886075      0.08548230994885
  H           2.22393800831902     -0.68624944769001     -1.38286291809046
  H           2.63571952794720     -1.84306410526069     -0.10416009407116
