20
Coordinates from ORCA-job NEB_product E -36.462636294880
  C           3.34698140373828     -0.69716534385572      1.75743722698343
  C           2.00419758595791     -0.43182274403010      2.38463652320538
  O           3.39720770518978     -0.02644496488136      0.52968745158309
  H           4.11367841261405     -0.30908040535131      2.45127327375238
  N           1.08587285720802      0.34035368518775      1.45092780221088
  C           3.52483221939971     -2.24039994895357      1.65119896419863
  C           2.42593142845907     -2.81899903059019      0.80603847664549
  C           1.56077478399984     -3.71524330650002      1.23792231204078
  O           1.62348261979186     -0.76225060732994      3.46053964202088
  C           4.89748037771760     -2.58021858514578      1.06828526413204
  H           3.45366088378752     -2.63596129958054      2.66848782635237
  H           2.37019840195258     -2.43931105427556     -0.20469289112127
  H           1.59232648289694     -4.09685767634576      2.24547994366440
  H           0.78301437089987     -4.10027159119756      0.60269398269841
  H           4.22429280931003     -0.23862412994607      0.08348626539199
  O           0.45342733350816     -0.31548288703015      0.66748831055524
  O           1.07074948300257      1.53238896834160      1.60165554780501
  H           5.69258761448982     -2.10061679745639      1.63605979483433
  H           4.96857772028280     -2.27630529156191      0.02522026550676
  H           5.04602550579358     -3.65608698949743      1.10837401753980
