26
Coordinates from ORCA-job NEB_product E -52.873039905900
  C           2.20289435342657      0.22827242192325     -2.24900429811707
  C           0.79529826636968     -0.40971626422906     -2.39686708976205
  C           2.20863078531946      0.93410622369205     -0.89648679172004
  H           2.97204336000087     -0.55205241023563     -2.21790576347324
  C           0.77410087414609     -1.91118118386200     -2.45279092549162
  C           2.46399353294071      1.19741172458997     -3.42876079937362
  C           3.70131861914865      2.02820669988108     -3.22106804041158
  C           3.69132149132952      3.34732769054858     -3.15314997469456
  O          -0.17272395325722      0.30016377765812     -2.41899041957261
  C           2.60714348325536      0.47400834236251     -4.77022910491954
  H           1.59077106723570      1.85923584329647     -3.52036236302577
  H           4.63027686507793      1.47512401520368     -3.16704229483737
  H           2.78095353016814      3.92045085936080     -3.21797793306058
  H           4.60194491891653      3.90337595948705     -3.01922249510167
  Br          1.47096814408937     -0.25665465567693      0.48480828574262
  Br          4.01951363444670      1.35939806698642     -0.26907248319770
  Br          1.14786457942692      2.55388446008715     -0.87212839718312
  C          -0.62701461072820     -2.44391029874071     -2.71414804726793
  H           1.15003564456559     -2.29167877262670     -1.49878161578950
  H           1.47139720637645     -2.25366714134582     -3.22174715636341
  H          -1.30941183308620     -2.09570983421418     -1.94367504374616
  H          -0.62016386003916     -3.52962583257620     -2.71621092460572
  H          -0.99022533180941     -2.09124741842118     -3.67646017524669
  Br          3.15595533086501      1.74780974547716     -6.15839678890116
  Br          3.96471751761175     -0.93462252567603     -4.70762510915546
  Br          0.94189638420318     -0.32460949294989     -5.41570425072449
