25
Coordinates from ORCA-job NEB E -38.706410115130
  C          -0.10884317451298      0.12329266057816     -1.05058225865837
  C          -1.02593851559062      0.57845682737462     -0.08025438755452
  C          -0.56868266868473     -0.93745179583245     -2.01921909321990
  H           0.52163503605041      0.88604089712708     -1.49955575002474
  C          -1.00086021994370      1.99616712686793      0.43817624425673
  C           1.04624295960993     -0.82318792310357      0.15579085580030
  C           0.20997437950780     -1.80196192370771      0.71196203911847
  C          -0.89494642584962     -1.32658835176709      1.47357339251568
  O          -1.74469457481215     -0.30749445716801      0.55326359108977
  N           2.14110011953741     -1.25604446891327     -0.68040260571955
  H           1.37215672099414      0.00973099135303      0.76840852129819
  H           0.14739371423511     -2.75388499985290      0.20704103552580
  H          -0.65308589194020     -0.66403066783055      2.30111686180984
  H          -1.63271247751800     -2.06897581454124      1.75497760377881
  H          -1.33736238342312     -1.55480832384504     -1.56147006741826
  H           0.23925835883778     -1.57684725832083     -2.36722540726203
  H          -0.99832340197276     -0.44218444346712     -2.88920418817748
  C           0.30020307675428      2.40484461889172      1.13524589840833
  H          -1.83376183391996      2.10619391738952      1.13479243469598
  H          -1.17151060606158      2.67083865875096     -0.40428754579647
  H           0.48137143885698      1.79323247108934      2.01644054715818
  H           0.22530764728498      3.44057095885110      1.45728389670120
  H           1.15038094797701      2.32271615824198      0.46244256907591
  O           2.02683804552596     -2.29176342696715     -1.29586857691860
  O           3.10885972905762     -0.52686143119852     -0.72244561048327
