25
Coordinates from ORCA-job NEB_reactant E -38.732296435520
  C           1.87817181960339      0.08431003407783      0.53589858110178
  C           1.49049392278792     -0.03067789189959      1.80287549267527
  C           2.86056939795007     -0.70721113430556     -0.27609246163920
  H           1.39941831317694      0.88073586596637     -0.01601703497093
  C           0.44103171200680      0.87988907600438      2.39149456477733
  C           4.09791841399286     -3.68479275226179      1.77880254968641
  C           3.05927040801245     -2.90409063408201      2.06109887258015
  C           3.15319824388995     -1.55300190913948      2.69478427642637
  O           1.91989340547251     -0.89295562206954      2.78740275962603
  N           3.91697091290529     -4.98151146952265      1.20208233943145
  H           5.13267107861206     -3.42841296961347      1.94648451202316
  H           2.05818486930229     -3.26932487681007      1.86016937915622
  H           3.90314023041162     -0.93269356609840      2.19037002190917
  H           3.48178128428116     -1.69121198471160      3.73505808296005
  H           2.92640197703251     -1.74346032447692      0.04466966383613
  H           3.85828372050235     -0.26564597662590     -0.23537538790357
  H           2.54482493792085     -0.69856756496405     -1.31735626994506
  C           1.08920133538622      2.04373628836248      3.14152768289310
  H          -0.16132046764470      0.29525934571003      3.08812327760665
  H          -0.20574432129133      1.26087573597230      1.60222564480522
  H           1.73066856709707      1.66870519679863      3.93517299825110
  H           0.32656722466906      2.67928370121024      3.58442960896090
  H           1.69085207238198      2.64402798683392      2.46267761048254
  O           2.79008649215835     -5.34924604778612      0.94835502921382
  O           4.92266444938230     -5.62981850656901      1.00313820605590
