25
Coordinates from ORCA-job NEB_product E -38.750892194440
  C           2.41293575480334     -0.88062912369320      0.85939299290376
  C           1.27187427813079     -0.26422917937276      1.67357957993884
  C           1.82839487752563     -1.69680760427502     -0.29196768140233
  H           3.05238610913867     -0.08419734101851      0.46553490084588
  C           1.34564527998912      1.23248686524071      1.85778775652723
  C           3.26981168060138     -1.74901994106495      1.82277705559056
  C           2.60726899405229     -3.02725372286072      2.22163094504509
  C           2.06840074126329     -3.22024740731454      3.40988202106004
  O           0.38646593501425     -0.93865955931651      2.12780629508516
  N           4.53994354117217     -2.00589178162733      1.09825343041425
  H           3.53325031942792     -1.14832508819027      2.69926509829412
  H           2.60168367529058     -3.79882025120347      1.46585711970439
  H           2.06617463746050     -2.45588182266309      4.16916446123839
  H           1.58679434694539     -4.14726400160807      3.66459571712249
  H           1.04754050406604     -2.35489806397827      0.08120305089069
  H           2.59769939269333     -2.29421958156275     -0.77672290310669
  H           1.39332337489180     -1.02931203762214     -1.03236633306668
  C           2.53502761680984      1.63772819651272      2.73118658663192
  H           0.41754978062640      1.56761238940040      2.32343590216790
  H           1.43701827840462      1.70148707991291      0.87566202882650
  H           2.46586552198740      1.16378112596408      3.70767106096718
  H           2.53009438812612      2.71498492842239      2.87575156683799
  H           3.48187749968715      1.36253834521896      2.27310506880330
  O           4.58229925422514     -2.93163339671930      0.32719806914843
  O           5.43707421766682     -1.22122902658128      1.30051620953157
