19
Coordinates from ORCA-job NEB E -42.747265539260
  C           1.03682857914946      0.16332078922383     -0.41577593020768
  C           0.44290384070832      1.38114240513094     -0.07924755720713
  C           0.76919505204637     -0.46270999005718     -1.74714746883407
  H           2.07500069508994      0.04521118564262     -0.12753782654361
  O           1.13480701437419      2.15192334342255      0.79964096543176
  C          -0.06879485713112     -1.06034075243130      0.91030211714480
  C          -1.35993502087914     -0.68805570993312      0.55091822836286
  C          -1.79172411373149      0.62688763780182      0.75498291039272
  O          -0.78033837706373      1.63991805022744     -0.28840508570956
  O           0.32193400884005     -2.32389255138530      0.64839177556165
  H           0.40234123886652     -0.57750487880506      1.76426152535428
  H          -1.86284493415565     -1.30570364635856     -0.17596160608612
  H          -1.51717763334416      1.11996171227083      1.67998898018328
  H          -2.76228423183789      0.90410244779291      0.37411965323697
  F           1.40069326486507      0.21957308227014     -2.73319914628388
  F           1.26416991077526     -1.71086494752404     -1.81599655784081
  F          -0.50836819592396     -0.53096247797216     -2.11603436176524
  H           0.58964487159854      2.91135234452174      1.05118573019570
  H           1.21394888775342     -2.50335804383811      0.96551365461409
