20
Coordinates from ORCA-job NEB_product E -36.887439925500
  C           2.18431000030546      2.15385015490930      1.18493621900441
  C           0.93759426272438      2.81392433494752      0.61912115548980
  I           1.81256552037911      0.02285236798833      1.00346231023483
  H           3.05549623191072      2.34846588707755      0.55827797253240
  C           0.90702002372878      2.92080694384026     -0.87696599172066
  C           2.46161250174457      2.51800475404595      2.64144114978646
  C           3.68959593353814      1.81929179238395      3.15305203737285
  C           3.68156852511304      0.97525637385575      4.16601827875785
  O           0.06704359507180      3.22797778236730      1.34035308427115
  C           2.65400054791700      4.03856210622126      2.73492950782900
  H           1.59238961624610      2.26802374780325      3.25848741874236
  H           4.60501625548681      2.06096439239051      2.62938071147862
  H           2.77637943526579      0.73265625725341      4.69802281927331
  H           4.58032603358821      0.48946880097974      4.50251636617703
  H           1.56320542843908      3.74088237452655     -1.17031378816135
  H          -0.10178879473239      3.14405133198862     -1.21412164857777
  H           1.26722693300072      2.01135303807908     -1.35136474592207
  F           3.07922430917756      4.39073107924153      3.96690488632656
  F           3.61384221384019      4.45623885526797      1.86722748847705
  H           1.73727142725493      4.60583762483218      2.51933476862818
