18
Coordinates from ORCA-job NEB E -42.129280662070
  C           0.66089645444545      0.33474119123441      0.93443772672228
  C          -0.61491189941600     -0.27597962885317      0.83398026033311
  C           0.65752928496385      1.74475227937224      1.17416157583635
  H           1.41322987256234     -0.18820323697453      1.52111284101991
  C          -0.77535952305969     -1.73325074815120      1.19916728660238
  C           1.24975376224672      0.27559344148177     -0.83958096540427
  C           0.22411802565520      0.92582991525836     -1.53782319840434
  C          -1.07586637498306      0.34307581508349     -1.48499095896471
  O          -1.51014982720811      0.25693059005488      0.06665638131977
  Br          2.99224573491960      1.07762791040479     -0.86629611708073
  H           1.34602322772378     -0.80154560270890     -0.92985097147087
  H           0.31406566706925      1.98618238057757     -1.72451169782958
  H          -1.14118898456164     -0.70777721301473     -1.75784453741806
  H          -1.87373563180803      0.93550219710785     -1.91723545776486
  N           0.63293935335913      2.87067447987181      1.36451167994334
  Cl          0.02531844882653     -2.10852373829985      2.73475973168363
  Cl         -2.49186326681137     -2.14818705725734      1.30748998917622
  Cl         -0.03304432392394     -2.78744297518743     -0.07814356829958
