18
Coordinates from ORCA-job NEB_reactant E -42.166501007280
  C           2.09626718066724     -0.21462772840339     -0.28017830180351
  C           1.51769345510224     -1.19767787725922     -0.98959823460649
  C           2.30958263147301      1.11087182213049     -0.68723701942487
  H           2.44909187287775     -0.42678773389797      0.71844870575790
  C           1.39286329790836     -2.60342503820774     -0.44366295986127
  C           3.50315386583430     -0.49838183365123     -3.41161945704875
  C           2.48901229388419      0.34708954837189     -3.45712846693606
  C           1.09681466745131      0.00441545053583     -3.01346999759524
  O           1.00896075149924     -1.17339866560601     -2.23057629314784
  Br          5.23574018648729     -0.03020043473111     -3.98136138848762
  H           3.43459678979703     -1.51210913860862     -3.04912912602723
  H           2.61149328186125      1.35288825207247     -3.82999435359793
  H           0.47370432146493     -0.20980198603398     -3.88934232491982
  H           0.65818574176511      0.85424176021061     -2.47778469286721
  N           2.51287621667724      2.21007937225024     -0.94875102882955
  Cl          1.69077709589918     -2.72657152188591      1.29110184188800
  Cl         -0.23417000298119     -3.23931900242487     -0.78267749854140
  Cl          2.59165635233151     -3.62408524486149     -1.29683940395110
