17
Coordinates from ORCA-job NEB E -40.894878972080
  C           0.00073861565314     -1.39822914960198      0.53148884714550
  C          -1.35937715380937     -1.39373542472155      0.18427464576272
  F           0.29621703624040     -1.09928328532758      1.80978814131837
  H           0.64208620962880     -2.19619379472680      0.16614268191110
  Cl         -1.71565488355539     -2.18008387114125     -1.35186999751348
  C           0.52737726724869      0.24525362263862     -0.36705992482494
  C          -0.36977518221666      1.16602702804547      0.18368029039590
  C          -1.75604120871422      0.98150318999930     -0.08029589259442
  O          -2.13205257247941     -0.45958247048333      0.56897538712935
  C           1.99958075658248      0.46268199546347     -0.17618438216561
  H           0.31674976046823     -0.10858314983857     -1.37707251090770
  H          -0.08164875649726      1.71715072666084      1.06743730897464
  H          -2.03206525133639      0.80585322708483     -1.11782379839679
  H          -2.43645620708723      1.64901535078746      0.43282063963950
  Br          2.53017652385398      1.94358548091767     -1.37782758853729
  Br          2.52086788708496      0.95605353863541      1.62410335667579
  Br          3.04927715893524     -1.09143301439200     -0.72057720401264
