17
Coordinates from ORCA-job NEB_reactant E -40.922216439070
  C           2.35780918436409      0.49077864078925      0.17934759493305
  C           1.51176292043447      0.87760351151036     -0.77167371282526
  F           3.01788718126285      1.34963784906296      0.98964030021721
  H           2.59007323401123     -0.53874853386775      0.38591139743215
  Cl          0.73912002882645     -0.35073282166046     -1.69945624352938
  C           4.19925768378478      3.68518508683348     -0.43113172597670
  C           3.17463423311375      3.33045923829071     -1.18898635525585
  C           1.76658663240289      3.24686435198848     -0.68675821728659
  O           1.09988378842066      2.09213132702937     -1.17794891322510
  C           5.60875607841448      3.78758088153943     -0.86230157858795
  H           4.05515520260536      3.92661538747471      0.61519072491585
  H           3.29736669831536      3.06702632156450     -2.23142039961771
  H           1.18373827390257      4.07777450153941     -1.09846842536837
  H           1.72825733503972      3.29139909052304      0.40614944131461
  Br          6.25547535322962      5.62422758196521     -0.53886849752695
  Br          6.70723736705654      2.56048853117829      0.22024435421866
  Br          5.92269880481517      3.37310905423900     -2.73046974383165
