17
Coordinates from ORCA-job NEB_product E -40.938439321080
  C           3.31551112750634      1.17448094567775     -1.01953350750450
  C           1.82581225872239      0.88569939251328     -1.00633620753004
  F           3.89575352503430      0.46276328502070     -0.00783764583542
  H           3.75131206926463      0.81344872666457     -1.96206999143806
  Cl          1.04883970989558      1.54728760477355     -2.44351758087584
  C           3.54419758087863      2.68805776318764     -0.82988545136470
  C           3.05224941336519      3.10962265435108      0.53013454430650
  C           2.19690961474526      4.09661810092360      0.71414428069074
  O           1.21272667368877      0.31076247538604     -0.18073213545060
  C           5.00327187138948      3.09780852962848     -1.01852402018293
  H           2.96713432721711      3.20052000013547     -1.61040025585704
  H           3.44828893802920      2.54238598378916      1.36083749525649
  H           1.79431504630042      4.66925715932348     -0.10568584658519
  H           1.86850186961560      4.37354557559900      1.69986786111673
  Br          5.11736963883398      5.04827198393348     -0.92627555968776
  Br          6.20521515716994      2.36804241021118      0.31921408375694
  Br          5.65739117834319      2.57282740888153     -2.79180006281530
