19
Coordinates from ORCA-job NEB_reactant E -43.210090668740
  C           1.81296460549140      0.42954800719834      0.09887210527864
  C           1.51585952858000     -0.62314672977858      0.87169086574451
  O           2.39046707208720      0.33276987485928     -1.10076023171948
  H           1.62424424930009      1.44411892369598      0.41148278084760
  C           0.88114664263914     -0.45394417793015      2.22069632330410
  C           1.28668899577053     -5.39392008499651      0.43285051147905
  C           1.38612441560673     -4.15039670640863     -0.03123994433173
  C           0.93696585911673     -2.94463965271006      0.72422823897396
  O           1.85949330916324     -1.89421801386021      0.45135663740507
  C           1.68966454137601     -6.51269849219015     -0.32291734385463
  H           0.88140941567692     -5.61211724630402      1.41250208176663
  H           1.80330390236477     -3.95704847820216     -1.00982281946797
  H           0.88964909169918     -3.15601806907846      1.79920322579052
  H          -0.06895519494096     -2.65592188147117      0.38027418132959
  H           2.54831220509147     -0.60208901775565     -1.30456840428953
  F          -0.41682097855631     -0.83529688659664      2.24330023100712
  F           1.48683157600198     -1.17795128445610      3.17495963899113
  F           0.89774257350775      0.81951385855621      2.62664117849911
  N           2.01590819002411     -7.42974394257130     -0.92814925675369
