19
Coordinates from ORCA-job NEB_product E -43.198524428810
  C           2.49003681266573     -2.30831926126324      1.02005272533599
  C           1.50145846773722     -1.77065364593551      2.03294986490899
  O           2.96597794329391     -1.27031905299821      0.22428136724782
  H           3.30487170359548     -2.78581294531562      1.59382191719615
  C           1.21234890776904     -0.24431554717863      1.92529190341574
  C           1.75232533278759     -3.42520228125335      0.21073765631852
  C           0.58099470577578     -2.84877107056254     -0.54483076929350
  C          -0.65395885364119     -3.28820804808400     -0.40547937427512
  O           0.95003902574015     -2.43588084760177      2.85833160592091
  C           2.69629939638667     -4.00318339758734     -0.71791516318329
  H           1.41664021250666     -4.19687354774286      0.91186855970617
  H           0.82032364975554     -2.02738864792712     -1.20526926598155
  H          -0.90257843717649     -4.10281550723275      0.25524773967442
  H          -1.46918082663087     -2.84602965550160     -0.95026694543145
  H           3.60363464080619     -1.60627431523187     -0.41785400364061
  F           0.30558262561876      0.12141047241645      2.83335108868436
  F           2.30830835229820      0.48528757671747      2.14465319865805
  F           0.72325678467951      0.08639105481518      0.72728750603995
  N           3.46171955603212     -4.41024133253270     -1.46225961130155
