23
Coordinates from ORCA-job NEB E -52.958326371270
  C           0.39304335145181     -0.01182082565070      0.25098181338175
  C           1.78318669950695     -0.19015224184971      0.26648745159022
  C          -1.10294923490331      2.99167474037580      0.50279482845130
  H           0.01577062515180      0.99933768305636      0.17815093880843
  C           2.57492242605958      1.13673802824260      0.32493730124349
  C          -0.61145062659662     -1.10116273365922      0.21081043057786
  C          -0.86919708920511     -1.29663310859232     -1.27100325978947
  C          -1.94894529415393     -0.86397991374258     -1.89424942792009
  O           2.40852601735282     -1.25209567243397      0.23553313122944
  C          -0.15899487121436     -2.40247232672716      0.87094350223754
  H          -1.53976329860894     -0.76857438966311      0.68796881350913
  H          -0.07473869785825     -1.80546119876638     -1.79726285828560
  H          -2.73926899152687     -0.34290614072397     -1.37929914448039
  H          -2.09600518132009     -1.03468750706603     -2.94703381349238
  Cl          0.10366347425238      4.17021239492293      0.66938304242046
  Cl         -1.90934600053589      2.88112552443689     -0.99157949670937
  Cl         -1.95982058765068      2.52004283648567      1.89341778304354
  F           2.23468554456116      1.95064764122569     -0.71030668394818
  F           2.25562791433658      1.83310596208888      1.44938850453258
  H           3.66077232647578      0.97670573577885      0.30679994683890
  F          -1.22834516068771     -3.26259905456067      0.95037947116734
  H           0.18422043735016     -2.22382872246376      1.89431832247797
  H           0.62440621776273     -2.90321671071408      0.29843940311550
