23
Coordinates from ORCA-job NEB_reactant E -53.067885698490
  C           2.12131128199474     -0.43469206455540     -0.28935981837723
  C           2.00513856931493     -1.20245251354779      0.80428300822736
  C           1.26261828321136     -0.26781441931640     -1.48744245614028
  H           2.98443247023413      0.21664887589149     -0.29366647478210
  C           3.08259742406593     -1.00718886349589      1.86868996453545
  C           0.41794706792560     -4.86677163027064     -1.07125124982785
  C           1.00676166348583     -3.89438694766131     -0.39696851966061
  C           0.26636547633910     -2.84783712439503      0.38474863162680
  O           1.13723473290133     -2.12007624515708      1.24214100261929
  C           1.14833445485605     -5.90189589805685     -1.86389670614944
  H          -0.65791825606347     -4.96481667974409     -1.10082075100599
  H           2.08479207798858     -3.81536382304821     -0.38258353771669
  H          -0.44555261385550     -3.31575611468827      1.07140134094289
  H          -0.28897559965893     -2.18057651809595     -0.27936579784632
  Cl          1.22963755805355     -1.71819298623660     -2.54190858801548
  Cl         -0.42613592492037      0.15136641965573     -1.04775239103007
  Cl          1.88418097543196      1.07688346106421     -2.47421258973329
  F           4.28528338595464     -1.42627754564919      1.41027274566904
  F           3.23671599336428      0.29787397657965      2.18129706916568
  H           2.84624228844853     -1.56408778465081      2.78650238510515
  F           2.50699271811144     -5.75150244047788     -1.78054552797000
  H           0.88515934874131     -5.83469494245088     -2.92735446220666
  H           0.91673662407500     -6.91048819169278     -1.49850727742965
