23
Coordinates from ORCA-job NEB_product E -53.067577577880
  C           1.80037513152991     -1.94146637423712     -0.42319363093426
  C           2.93793699017913     -2.01785519473090      0.58360584778197
  C           2.30598791735119     -1.36538545416887     -1.74602696091444
  H           1.04019110907676     -1.23967222722093     -0.06444403097354
  C           2.63697391925874     -1.31810327722826      1.92813477369939
  C           1.11091581948844     -3.34395760952161     -0.43912277448240
  C          -0.28124801643986     -3.24862065350806     -1.01389941030823
  C          -1.30291542546673     -2.75185270150583     -0.34312802566423
  O           3.97708427693485     -2.58100003648496      0.41004492515586
  C           1.91562398678423     -4.45797263918793     -1.10808397481403
  H           1.02145007042567     -3.61836179042339      0.61940163542702
  H          -0.40103615985926     -3.61697184667242     -2.02112532940424
  H          -1.19940128064476     -2.37949420959004      0.66367998541934
  H          -2.28615295685380     -2.69693699485296     -0.77523377648978
  Cl          0.99488817879951     -1.24742840580491     -2.93022058346870
  Cl          2.85132741203046      0.31545344215945     -1.37237825944628
  Cl          3.67796208275016     -2.20364158249120     -2.46569602754507
  F           1.31747289737039     -1.36144248932040      2.23083295314507
  F           3.28870474219557     -1.92227426907723      2.93673890470839
  H           2.94722555589452     -0.25946832778325      1.89033415774608
  F           1.80449179202990     -4.41493146282613     -2.47292091805349
  H           1.51674662322351     -5.43078194234980     -0.80116582367845
  H           2.98039533394144     -4.39763395317325     -0.86443365690598
