26
Coordinates from ORCA-job NEB E -35.744103257900
  C          -0.13383468125434     -0.79830881579414      0.56505091328294
  C          -0.81103464902410     -1.27040740832925     -0.55613071892128
  C          -0.89733144650827     -0.47520703798190      1.82938510408241
  H           0.84438698996488     -1.23079555104965      0.74746707736835
  N          -0.09332287765885     -1.96761741915275     -1.52800357658884
  C           0.32206397389539      1.10898115562542     -0.19069426552445
  C          -0.40743119596185      1.22033735322147     -1.37325691894432
  C          -1.78359199042756      0.94395309362727     -1.30604728850699
  O          -1.92542428763898     -0.75646260475606     -0.94053404994653
  O           1.67819145237008      1.18572932684892     -0.10858092154507
  H          -0.10160652060352      1.56157490790154      0.69620287101253
  H           0.08748366160210      1.00641637560714     -2.31045221384376
  H          -2.35275885956460      0.97364754313499     -2.22393835116415
  H          -2.32802460592041      1.31704734838192     -0.44806624109162
  C           0.01346593627413      0.00588106379420      2.95303677510850
  H          -1.40389286568717     -1.38777554249022      2.16388799897603
  H          -1.67898207810033      0.25866929922539      1.62625999684728
  H           0.72402042810174     -0.77339970277871      3.22070701239112
  H          -0.57360437580469      0.25070574307060      3.83553975000743
  H           0.57770714290009      0.88668505200166      2.65787042920717
  H          -0.65550734572435     -2.28126025156716     -2.30460013544007
  H           0.58103211424404     -2.64090825339984     -1.20200806125694
  C           2.42313236256985      0.79070771363677     -1.23976570104492
  H           2.36890806976930      1.54366198269821     -2.03218222142808
  H           2.07082774382604     -0.16921462688745     -1.62702401791011
  H           3.45512790436137      0.69735925541163     -0.90412324512662
