26
Coordinates from ORCA-job NEB_product E -35.800638491910
  C           2.49876386258376      1.11890326489463     -0.56514974270216
  C           1.27393509286779      0.41639846635168     -1.13907562782800
  C           2.43138690887821      0.99819024396393      0.96474231193515
  H           3.41100690160675      0.63698068982991     -0.93025923789743
  N           1.54226909993519     -0.66416473771914     -1.91133319054506
  C           2.44811486095040      2.58347550811150     -1.06932910437554
  C           2.22202194769551      2.57609956916712     -2.55918801525704
  C           1.25806344590215      3.24904464179379     -3.15685458534190
  O           0.14033946202631      0.77484160045328     -0.91764957503038
  O           3.56735071327345      3.36343639917011     -0.67872031123734
  H           1.60231217655618      3.07835792503260     -0.58079086340425
  H           2.90513054484593      1.96585771858561     -3.13736978638782
  H           1.11460031052395      3.21290757744510     -4.22395780841373
  H           0.56440036095586      3.85400283521596     -2.59847743332547
  C           3.70933561544620      1.43872458250872      1.66637298084557
  H           2.22637440995169     -0.04752050429514      1.21406947220720
  H           1.58718751972290      1.59103615419110      1.31895266914516
  H           4.55624795683535      0.83956829191372      1.33563087492742
  H           3.60283096952871      1.31348353421080      2.74139565562279
  H           3.91724745838374      2.48296484752676      1.45557355364340
  H           0.77027145150487     -1.17460035083913     -2.30809612921106
  H           2.47507751580893     -0.98451387997470     -2.09712987265889
  C           4.76960473250913      3.14622840702991     -1.37458143829750
  H           5.51780096518273      3.75201084957435     -0.86530400159148
  H           4.69856917974212      3.47114579717295     -2.41843631633696
  H           5.08575653678217      2.09794056868460     -1.34513447848467
