26
Coordinates from ORCA-job NEB_reactant E -35.777362304560
  C           2.00923495586489     -0.00636933425035      0.19201839093888
  C           2.04197630392994      0.32295998371974     -1.09898774493582
  C           1.03461135334766      0.53901444460104      1.18875854253451
  H           2.74270361267692     -0.70577729712948      0.56534296704304
  N           3.00810983114005     -0.14014455833414     -1.99624618022809
  C           3.85628002789714      3.18996298851888     -1.62550361668491
  C           2.75855463875891      2.87128457216449     -2.30000098495000
  C           1.46762583616757      2.55877073133940     -1.61049428625792
  O           1.12938226924543      1.17311641834516     -1.68516107703181
  O           5.09285582510918      3.45878937360977     -2.09972831185529
  H           3.84868336151477      3.29063558784383     -0.54800020773738
  H           2.75753634108488      2.75256098864985     -3.37206770811313
  H           0.62934029533946      3.06211576065901     -2.10062202642788
  H           1.51745362561224      2.87408697895431     -0.56131966306312
  C           1.72837044850272      1.40211249256489      2.24403573894207
  H           0.53381844060737     -0.29358756683070      1.69230694443813
  H           0.27253354569719      1.12236619963016      0.67020769076590
  H           2.47581869994781      0.81905418543660      2.77777889795355
  H           1.00518467307256      1.77955583106901      2.96386279149263
  H           2.22804256557269      2.24927659067714      1.77838299530927
  H           2.67153894529496     -0.17399170329691     -2.94804946791997
  H           3.46684920280845     -0.99216240350571     -1.71142830119784
  C           5.29711476585228      3.32638162098358     -3.48656323425005
  H           6.34746199000553      3.55352862684857     -3.66032123889133
  H           4.67341144281499      4.02916426002493     -4.04815759128846
  H           5.08140700213443      2.30649522770694     -3.81934331858497
