23
Coordinates from ORCA-job NEB_reactant E -43.221152695190
  C           1.33347112391389     -0.04269715947564     -0.17941254078713
  C           1.95145077889760     -1.12409950314457     -0.68856963434509
  C           1.44121146423548      1.26691131745219     -0.83334055878990
  H           0.74385170081824     -0.11533188483857      0.71803908971281
  C           1.80546469876803     -2.46736587265178     -0.03458574019147
  C           1.37682295692394     -2.70781174063015     -3.58573818623988
  C           2.59458851420104     -2.95676294170892     -3.14137201229979
  C           3.42793576452983     -1.93576433174289     -2.42473733410085
  O           2.67610456707895     -0.91209446645948     -1.80860219294668
  F           0.66224805055658     -3.64470929923600     -4.22196408645603
  H           0.84036115745006     -1.77386171040935     -3.49566109955900
  H           3.04781570217749     -3.92293834189980     -3.30217527049808
  H           4.05648510189241     -1.40045166628017     -3.14650462881026
  H           4.09290639122805     -2.42189952377104     -1.70044979272669
  Br          0.44302320460565      2.63217883019568      0.12083651578903
  Br          3.31874133002797      1.87757275663848     -0.96578445497718
  Br          0.75673767126484      1.21545483056963     -2.68839497098935
  C           0.39413793246081     -3.03032603746939     -0.22321427966583
  H           2.00318673662520     -2.35361889080105      1.03345263617584
  H           2.52633840828809     -3.17667490649188     -0.43800635775205
  H          -0.34983804603067     -2.34957760858373      0.18124284548264
  H           0.30794999951305     -3.98298927380161      0.29254692492497
  H           0.17900479057346     -3.18924257545996     -1.27680487095006
