18
Coordinates from ORCA-job P E -25.577092993170
  C          -1.29480369830246      0.47106600536719     -2.41047286173809
  C          -0.32862293423807     -1.67805174927133     -0.57100806179005
  C          -1.26129566005284     -1.91932857986545     -1.71809468744384
  C          -1.69562696883051     -0.97128211587453     -2.52924631958725
  C          -0.79751514635413      0.76692042153771     -0.99226634097202
  C           0.23894639531062     -0.26214597389904     -0.56473765231843
  H          -1.57368536313678     -2.94539018409101     -1.85304096050881
  H          -2.36565772135035     -1.20563942355178     -3.34391291299805
  N          -2.44247529839602      1.32418648244444     -2.69497848560391
  H          -0.85991449236144     -1.85191868591154      0.36919225109402
  H          -0.45669758008805      0.64517526896220     -3.11579116469662
  H           0.50031730139797     -2.38957984800448     -0.61558642343066
  H          -1.64443677656635      0.72372787528386     -0.30756776645202
  H           0.65373615730726     -0.01508865551833      0.42193989852059
  H          -0.36352323554441      1.76774053874524     -0.95096960001594
  F           1.31994277393510     -0.20127592685197     -1.43249617771384
  H          -2.80214302759118      1.13278688529601     -3.62382227417306
  H          -2.17095472513837      2.30099766520281     -2.66173046017204
