18
Coordinates from ORCA-job R E -25.493350379830
  C          -1.29894750862940      0.11252729594323     -2.96118015537904
  C          -0.18456211667836     -2.32034380759675     -1.53368950522568
  C          -1.46981745889396     -2.03490472731502     -1.73566869376895
  C          -2.01323055993954     -0.88665167392826     -2.42249796635817
  C          -0.89277913214275      1.15979647811971      0.05126122629789
  C           0.22696567047920      0.49858125593785      0.24038742632287
  H          -2.21372777175867     -2.72436743734288     -1.35428505468851
  H          -3.09321153792756     -0.83906828959626     -2.49002655072775
  N          -1.84724595590011      1.24070085875417     -3.52845275805738
  H           0.10915434229714     -3.20982887075015     -1.00288915295165
  H          -0.22033001979326      0.11392942984859     -2.92089456974767
  H           0.61463079740142     -1.69203332827889     -1.88528240526775
  H          -1.79706308999941      0.83777354410096      0.52996321268443
  H           0.35683949596002     -0.38434862260442      0.84853659721837
  H          -0.94286372434707      2.01616733069303     -0.59693197814501
  F           1.37576813449557      0.85508071537506     -0.35906139457197
  H          -2.82364967312277      1.17666677528443     -3.77355560579173
  H          -1.28037989150049      1.72710307335560     -4.20365267184232
