18
Coordinates from ORCA-job NEB E -38.447191178480
  C           0.77568287832960      0.03570637810746      0.64042692202372
  C          -0.67268460549902     -0.31816365911918      0.44204506847700
  O           0.93193932190579      1.41838266561523      0.85985609016463
  H           1.20659114475784     -0.54615814245445      1.46362737636138
  C          -1.41116967233794     -1.03450432805041      1.52246169898519
  C           1.39986527799692     -0.34660216130699     -0.70566293720427
  C           0.39200839358126     -0.10810320674975     -1.72314093706951
  C          -0.73187102815693      0.83899824073825     -1.47941986980684
  O          -1.44264664453298      0.48693981820253     -0.32744707509285
  Cl          2.95509144611055      0.60893457888394     -1.05144501856442
  H           1.75892888480004     -1.37355611701530     -0.68282502106331
  H           0.71689679687187     -0.18418686758843     -2.75147234113437
  H          -1.45672051330946      0.84942285264790     -2.29632830412733
  H          -0.31318530720650      1.85238121422903     -1.37486303445163
  H           0.54014878794501      1.64565370528337      1.71101782472279
  F          -0.95067778213845     -2.30403826129211      1.66204309212115
  F          -1.20336664125367     -0.45058244536309      2.74578734947703
  H          -2.49483073786392     -1.07052426476800      1.34533911618165
