19
Coordinates from ORCA-job NEB_product E -42.324053451440
  C           3.44585449753943      1.17474183328904     -0.78796571834251
  C           2.19450868859712      1.47708857641104     -1.63381968888874
  F           3.14763496468521      0.28543385901584      0.21855702033463
  H           4.19778172638441      0.69041843965275     -1.42545961641254
  N           1.13468179821148      0.70552638798058     -1.35536956489440
  C           3.98964871059802      2.49267663152010     -0.21537497054218
  C           3.06152300210943      3.05337544053999      0.82902311105597
  C           2.37288343546447      4.16460382909312      0.65994661064999
  O           2.21368202182367      2.34130195221512     -2.47730873976786
  C           5.38234695513840      2.29970482140783      0.37679158938662
  H           4.08525217803684      3.18745421977607     -1.05709806547593
  H           2.98328180048928      2.46604311479923      1.73349696131151
  H           2.44519062219657      4.74497776987973     -0.24454373393364
  H           1.70680512731615      4.53327167231785      1.42001343541494
  H           0.28016264823325      0.85022410485998     -1.86696283391697
  H           1.16140104719497      0.01356167539295     -0.62618138336457
  F           5.39904630727919      1.51260908244306      1.45632063647919
  F           6.23478530950721      1.75453942490558     -0.50774104311779
  F           5.91982915919490      3.47064716450013      0.74757599402430
