21
Coordinates from ORCA-job NEB E -33.368955644600
  C           0.31620541204241     -0.65351736575657     -0.99872188616128
  C          -1.07680585466643     -0.72941002581405     -1.04751561488797
  H           0.83377545482482     -1.45131111638628     -0.48741129011148
  H           0.83331241977761     -0.27332366037725     -1.86808123358870
  C          -1.84779657676156      0.08719559201338     -2.06593529296225
  C           0.55992717428347      0.71543219242367      0.34334511397364
  C          -0.14537080259635      0.15880227568893      1.42634042976554
  C          -1.52980024391846     -0.03774330922753      1.28836613709762
  O          -1.73256088090136     -1.13615204455552     -0.01407161264823
  O           1.90009359488672      0.96311473745552      0.35138896046091
  H           0.08359563140570      1.53061520872298     -0.19690680645681
  H           0.38404127396576     -0.49302871252578      2.10485724481527
  H          -2.11519829457045      0.77714919877515      0.87700838214577
  H          -2.03577422034276     -0.57008983146096      2.08089468444980
  F          -1.09511461739521      0.37156067316088     -3.17388598995729
  H          -2.15761113413494      1.05004278602652     -1.63279138511335
  H          -2.73641001571323     -0.45862380626454     -2.39962169859239
  C           2.71734273287295      0.18132538245276      1.19527562498090
  H           3.74244325554223      0.43996336023265      0.93621751327276
  H           2.56230348421182     -0.88910775248780      1.03233447396527
  H           2.53940220718727      0.41710621790385      2.24891424555226
