21
Coordinates from ORCA-job NEB_product E -33.399473262680
  C           3.26689466391911      1.34136102395258     -0.23616108281122
  C           1.79062775614835      1.13498369059100     -0.46577200415346
  H           3.70378261461198      0.40132633746463      0.10333732846491
  H           3.76961338845888      1.67970608346297     -1.14227279888427
  C           1.23702909982130      1.99673435522835     -1.59212544362437
  C           3.46984272469295      2.41771857995497      0.86934760228868
  C           2.89854419064749      1.92729774094264      2.17114615795593
  C           2.03343502211108      2.61460796822672      2.89120868865020
  O           1.11467794760489      0.38815344138553      0.18569640209358
  O           4.82312601529096      2.82442962955933      0.93886244593597
  H           2.95254663628890      3.33659040395343      0.56768670824091
  H           3.22703729846345      0.94851135709389      2.49119095605157
  H           1.68414250189075      3.58716559635945      2.58552791743469
  H           1.63371499057251      2.23133931963955      3.81400851497020
  F          -0.12515992578639      1.94832294494754     -1.65183757894728
  H           1.61922900410773      1.63541469885272     -2.55480300284920
  H           1.52506129473120      3.04432647940157     -1.44968110063063
  C           5.72835030856601      1.93195997731332      1.54754385653963
  H           6.71018282800458      2.38545438894826      1.42390410651907
  H           5.72713786443766      0.94948380347572      1.06509260713372
  H           5.52078377541660      1.81231217924581      2.61539971962137
