17
Coordinates from ORCA-job NEB_reactant E -38.661888030430
  C           1.78184540725443      0.02721048285153     -0.27820287279063
  C           1.34667305310055      1.01209789800650     -1.06009223421179
  F           2.31695918146587      0.22584349643091      0.94780206131969
  H           1.75349972055803     -1.01049968669905     -0.55956679115092
  Cl          0.68799030597209      0.56982669160911     -2.59158382950164
  C           4.16046933701574      4.08098482799977      0.03369559532318
  C           3.43217151837669      2.97794390343944      0.02852083373935
  C           1.94444272329339      2.96543459389688      0.19785456784447
  O           1.28449575274154      2.34332177037039     -0.90236934615684
  C           5.65062368554566      4.09497089739040     -0.12653571642465
  H           3.73017792654236      5.06059501922926      0.18162602955977
  H           3.90250250155172      2.01473955357776     -0.11272301057146
  H           1.54572977648506      3.98201183342283      0.20715946779862
  H           1.67976662447425      2.46716873505223      1.13722685334138
  F           6.23750558546391      4.72210270371056      0.92744022261172
  F           6.17755553611008      2.85095316802821     -0.17156872383093
  H           5.97229136404863      4.62799411168328     -1.03878310689932
