24
Coordinates from ORCA-job NEB E -44.442673802150
  C           0.69480348431123     -0.66729593894309     -0.52989967203839
  C          -0.68974078065816     -0.73092876221622     -0.25227296006819
  O           1.51386818440769     -1.61615522570279     -0.02610650560542
  H           1.04004602460286     -0.30851188614406     -1.49145695818918
  C          -1.67191021269876      0.02818824002658     -1.10571360950458
  C           0.98723302361006      0.91094868991204      0.67741034943431
  C           0.63454977987338      0.36753448727611      1.92005808506264
  C          -0.70790427060601      0.03192521503087      2.14221850688462
  O          -1.01435143046938     -1.17756874434638      0.91028596202962
  C           2.40003724448869      1.35923948768795      0.44934163940787
  H           0.28543399303601      1.59733008304559      0.21362127808353
  H           1.40154953122972     -0.12885730975844      2.49640728184055
  H          -1.46950049601663      0.73248196672343      1.82491564548265
  H          -0.95714263595871     -0.50994067810030      3.04243894177713
  H           1.05460134559375     -2.04093519552420      0.71787176135736
  C          -2.09546495369979     -0.81745919179914     -2.30876130668653
  H          -1.21987576558658      0.95643838109979     -1.46378552382925
  H          -2.55105688397367      0.26720287510975     -0.50479656730791
  H          -1.23175185722922     -1.06600098565921     -2.92030225188030
  H          -2.80943269344219     -0.27074296574218     -2.91949826044182
  H          -2.55986393493472     -1.74180506635700     -1.97496792759193
  Cl          2.65550261416617      2.87928753398978      1.38315845646597
  Cl          3.61448649506105      0.19204270264668      0.97907875206074
  Cl          2.69588419489322      1.75358228774443     -1.25924511674346
