26
Coordinates from ORCA-job NEB_product E -52.023942447480
  C           2.66982019226432     -1.01367632588716     -1.59011476841073
  C           1.41950479474141     -1.86488575067741     -1.49434957069928
  C           2.30785846895827      0.36365480071992     -0.99786810290570
  H           3.46958215676269     -1.45583444675952     -0.99111306684288
  C           1.45347447019495     -2.96556174141945     -0.40412885372284
  C           3.17982360761905     -0.87993533274056     -3.04444500278690
  C           2.11766135296190     -0.40886229732556     -3.99814954138629
  C           2.09343574232302      0.81069298063464     -4.50136720990889
  O           0.39097759078409     -1.64534951597958     -2.07079867479095
  C           3.77027183536064     -2.20666379578310     -3.52277289136149
  H           4.00076844161962     -0.15622629376232     -3.04115931497345
  H           1.34816572179392     -1.12395433358837     -4.24436369345012
  H           1.31397433273433      1.12625507193411     -5.17200467904966
  H           2.84952356324725      1.54328083904044     -4.26879449548826
  C           3.53614475442977      1.20891788067285     -0.68768635537538
  H           1.74901511547690      0.20615540797953     -0.07249738956863
  H           1.65212354690492      0.88391496457561     -1.69721390891723
  H           4.21161668977157      0.67505005905735     -0.02350273285838
  H           3.23121555199464      2.13005100733916     -0.19811199399270
  H           4.07815118060330      1.47262042919435     -1.59113274487777
  F           0.71092353805286     -4.02760183051009     -0.76876045407187
  F           2.70050453216904     -3.42277649403966     -0.15054782372239
  H           1.04084281803024     -2.56998991704036      0.54127230104634
  Cl          2.59360524407834     -3.53047465459397     -3.37228368677285
  Cl          4.25381528459926     -2.06822587029966     -5.22985590417412
  Cl          5.21909947252371     -2.63317484074120     -2.57784944093757
