26
Coordinates from ORCA-job NEB_reactant E -52.010640192820
  C           1.57737765584081     -0.22816005814644     -0.20515512333501
  C           1.46246596479269     -0.83705992542213     -1.38123025041967
  C           1.74176976139962      1.24398967299036     -0.01880909003640
  H           1.57027827428428     -0.83017458726411      0.69233277402237
  C           1.32237656089696     -2.35230758735775     -1.44796620187449
  C           3.24516697256019     -1.76628318128179     -4.82825697201911
  C           3.33616786700333     -1.22973842509643     -3.62190684598349
  C           2.64408493566940      0.04860029925553     -3.24897145416559
  O           1.40278476960272     -0.17120489013953     -2.58092045643741
  C           3.85996841321615     -3.04920608295640     -5.25389519595062
  H           2.68429080901913     -1.27964815937844     -5.61450967745274
  H           3.88112044651575     -1.72885727386505     -2.83282054048415
  H           2.36745130124269      0.61563899357224     -4.13985881221029
  H           3.30430114226491      0.65386321437959     -2.61297540821234
  C           3.08169659571211      1.56850078823160      0.64292585263833
  H           0.93371765705306      1.60386908266579      0.62317030520488
  H           1.66006039456861      1.74897573055965     -0.98166248551166
  H           3.15458584849252      1.08383496526708      1.61359340746531
  H           3.18037586373384      2.64167726175426      0.78379150775414
  H           3.90847599154824      1.22302922920697      0.02630063311884
  F           1.03263373176451     -2.77692507814762     -2.69280985307769
  F           2.49598534188232     -2.95757475481186     -1.09938011197681
  H           0.54878249046109     -2.73868589835703     -0.76583220694146
  Cl          4.77847245519966     -3.86408778427942     -3.98475843182463
  Cl          2.57587493755149     -4.15428429527289     -5.82094023912202
  Cl          4.96623381772392     -2.73418125610618     -6.62775512316829
