19
Coordinates from ORCA-job NEB_product E -44.413815520730
  C           2.71109395930718     -1.49484895275776      0.23330967692074
  C           1.42102162617896     -1.74883065562882      1.00629181764558
  N           2.38676739035977     -0.55604122054351     -0.89714380258865
  H           3.46036242846017     -0.99912378244788      0.85857939213127
  C           1.44824856677710     -1.39503438897675      2.51315684919160
  C           3.28202589554382     -2.79543694530382     -0.35810121482361
  C           2.39995193180144     -3.48488026156629     -1.33552623264052
  C           2.83335195331528     -3.88084815870377     -2.51992961205715
  O           0.42182246211967     -2.16822211960028      0.50605436453313
  Br          3.64745396404755     -4.01275887668227      1.18625515111295
  H           4.26741950916848     -2.59410215745155     -0.78704593871614
  H           1.38607586559731     -3.67503458799727     -1.01678380392819
  H           2.18447117100528     -4.39101201417198     -3.20825121692247
  H           3.84487060163682     -3.70590270906778     -2.84982548479231
  O           2.91411960449465      0.52365317556220     -0.84024174994471
  O           1.63855105114242     -0.95100970766341     -1.74558119971825
  F           1.12569771714602     -2.48047336815737      3.23809577032941
  F           2.65903941938020     -0.97590198761571      2.93150010466132
  H           0.71105488251789     -0.60189128122595      2.72808712960601
