20
Coordinates from ORCA-job NEB_product E -50.286372688840
  C           2.32136308305113      0.80609804201832     -2.42141329407235
  C           0.96399530973708      0.19126532092341     -2.70941224517987
  Cl          2.39715683970346      0.64601171723654     -0.63129684152537
  H           3.14954976225261      0.22256707091698     -2.82945169735992
  C           0.92831855868040     -1.35292269187719     -2.69395826302196
  C           2.40039558391522      2.27965033816376     -2.82405851968419
  C           3.49631538639749      3.01052761685525     -2.09460076523175
  C           3.29422967738806      4.11604306989958     -1.40574895053953
  O          -0.03801607371499      0.82617731442440     -2.85219495429671
  C           2.67371842045681      2.35763081249503     -4.32805960701098
  H           1.43035816867235      2.75731520015716     -2.64477641272787
  H           4.47957358358127      2.57039160391954     -2.18292968800486
  H           2.31787808165673      4.56228974150661     -1.31615545049158
  H           4.10097403646636      4.61749915839161     -0.90150413429417
  F           0.29061924589689     -1.80514573846406     -3.78992063312084
  F           2.16515230942444     -1.89339517976145     -2.70634110161062
  H           0.39377845995267     -1.72590950636956     -1.80395070897233
  F           3.87511631834891      1.85138382204818     -4.64591606368911
  F           1.77730787115219      1.67603482662737     -5.05322561757504
  F           2.65451537698091      3.61798746088852     -4.76848505159095
