20
Coordinates from ORCA-job NEB_reactant E -50.279823302970
  C           1.70635892948766      0.12105011957083     -0.11352537259706
  C           1.56202929389484      0.21102188817777     -1.43681887042074
  Cl          2.55096573231153      1.19906950033533      0.93468575021470
  H           1.26336188163596     -0.70430613266470      0.41828774308550
  C           0.76704716820340     -0.87279196668545     -2.15059043224033
  C           2.70607629977341      2.73794918062156     -4.40021972982591
  C           3.08905635007256      3.04053701637092     -3.17099681930989
  C           2.76129697900489      2.22787612580383     -1.96212956532201
  O           1.99174533792469      1.10527830270980     -2.34454340609759
  C           3.05538306876079      3.57972380109699     -5.58495304432022
  H           2.11625817502740      1.86480166968417     -4.63028901689889
  H           3.68040043894173      3.92338938010120     -2.97028383963200
  H           2.20459602164793      2.85298654067420     -1.25201304963547
  H           3.69555300033886      1.90908652774878     -1.48197501161398
  F          -0.27393473965833     -0.33072895249101     -2.81956520156008
  F           1.53553201754041     -1.48937638538085     -3.07520925831039
  H           0.37316121639739     -1.63915813567231     -1.46759371907671
  F           3.79461449041174      4.65608128413630     -5.27590849911158
  F           3.75416660318879      2.89039880790805     -6.50324609933596
  F           1.96073173509435      4.03971142795456     -6.21531255799136
