17
Coordinates from ORCA-job NEB_reactant E -33.790375657310
  C           1.86516915134701     -0.27224356716713     -0.28078883278497
  C           1.46556546957500     -1.46125922930720     -0.72407934615573
  Cl          2.55659704754576      1.03697410908582     -1.17678668800992
  H           1.76190265975955     -0.04194236172479      0.76639923019441
  C           0.86750853350991     -2.46049977440522      0.24602197081833
  C           4.38484235380113     -2.20117828972248     -3.81320908068828
  C           3.63724272180434     -1.59400620936507     -2.91033859300948
  C           2.15128454335799     -1.44827154281913     -3.04793256427972
  O           1.45425937954678     -2.03034990161095     -1.95639083521719
  Br          6.25792586520543     -2.36551989167173     -3.64044875898868
  H           4.00284586011864     -2.63539344824715     -4.72366085073399
  H           4.07507898113610     -1.17930318419916     -2.01403308489304
  H           1.79055630840218     -1.99819930280156     -3.92113407113891
  H           1.88778937284518     -0.39117834986820     -3.15741393150929
  F           0.65526401210680     -1.92527590127858      1.48206798298937
  H           1.54248318968176     -3.31518812984025      0.37103750810663
  H          -0.09781544974356     -2.81006502505722     -0.13541005469955
