17
Coordinates from ORCA-job NEB_product E -33.794386901290
  C           3.23021706604462     -2.36882383756617     -0.91478645429164
  C           1.73701166963772     -2.70097667424193     -0.85892211791482
  Cl          3.73652127031926     -1.18081579004008      0.31468488456407
  H           3.79658855718826     -3.28613227825643     -0.72299041388745
  C           0.88512710325865     -1.77575480515155     -0.01815046352018
  C           3.52914156667576     -1.86927889645166     -2.33069895505209
  C           2.86925915128132     -0.57196947598526     -2.64787550598723
  C           2.01595635141574     -0.42055384734843     -3.64383139889700
  O           1.30298261567045     -3.62401209104573     -1.48667740090417
  Br          5.48409938118386     -1.67092768196377     -2.55113194117051
  H           3.23527156154206     -2.64821210216286     -3.03914320479188
  H           3.15056702242139      0.25719532545308     -2.01316809627421
  H           1.74132287045767     -1.23948095510552     -4.28824934051300
  H           1.55522448258470      0.52932727936565     -3.85072109412065
  F          -0.43628622602259     -2.06853782011757     -0.16498439821974
  H           1.03553661389731     -0.73451477100010     -0.32608956099758
  H           1.13645894244381     -1.88873157838165      1.04313546197808
