17
Coordinates from ORCA-job NEB E -41.562837705170
  C           0.95479588777678      0.69357054339241      0.65251131873291
  C          -0.44769063683274      0.71522879080273      0.64795159057359
  I           1.92440859648569      2.38804657011876     -0.18974611121859
  H           1.46084434477199      0.39810256547516      1.56337091557308
  C          -1.20683672157579     -0.01122456532055      1.73548166638400
  C           1.30142313793024     -0.71418521862067     -0.58058389830847
  C           0.55702907281949     -0.35806561590649     -1.70551224557711
  C          -0.85472556741705     -0.19741943032334     -1.55744924798324
  O          -1.06376307598198      0.95551526160572     -0.46984272775121
  F           2.64028522456765     -0.71356222382121     -0.70449098615345
  H           0.98940968846726     -1.53723700043255      0.05836916606136
  H           1.06898542211820      0.19264914987419     -2.48198167133209
  H          -1.38567450182069     -1.03096800391180     -1.10341854997767
  H          -1.37138653124424      0.20029626697961     -2.42325337337447
  Cl         -1.05345690321559     -1.81075127151413      1.58827483398323
  Cl         -0.58837411989131      0.43959099468312      3.33625769155673
  Cl         -2.92527331695792      0.39041318691905      1.63406162881142
