17
Coordinates from ORCA-job NEB_reactant E -41.589785019660
  C           1.68180396241307     -0.15242280524038      0.01021579630468
  C           1.51366871739726     -1.47022561339256      0.06869299062409
  I           1.85810847792733      0.98470226182474     -1.73696146256507
  H           1.69607809172565      0.44757026937684      0.90077972912507
  C           1.31935671987910     -2.17502193469761      1.39768650709087
  C           2.82565393219952     -4.44472977174804     -3.24344687836563
  C           2.97029368373175     -3.77138600051625     -2.11806966278830
  C           2.49167207771107     -2.36569703480113     -1.94465226246923
  O           1.48109114378853     -2.37566915820735     -0.93010693500718
  F           3.26419955637448     -5.70041021800190     -3.37387004622684
  H           2.38008328982661     -4.07272881354517     -4.15533824718936
  H           3.41978498238549     -4.24059369696751     -1.25562379539474
  H           2.06520241768091     -1.98619585943464     -2.87840934847308
  H           3.32616889691368     -1.72711889042561     -1.63666725713202
  Cl          2.80249383283321     -3.11868533210785      1.72974821392405
  Cl          1.03164014784324     -1.09346015347939      2.76058028281600
  Cl         -0.05049993063092     -3.29922724863618      1.26554237572669
