20
Coordinates from ORCA-job NEB_reactant E -45.499162374440
  C           2.03268468473869     -0.29634062004092      0.03837189744379
  C           1.43335723566442     -1.47103625668831     -0.15451373113772
  C           2.20271868225489      0.72832675865866     -1.03941080176868
  H           2.44461115922370     -0.06486455858381      1.00751005539545
  C           1.28117897670824     -2.44148931575343      1.00607364904295
  C           3.83860740738295     -3.43978208323582     -1.67843991566318
  C           2.55383926509730     -3.49584116234708     -1.99102473388120
  C           1.77890239662418     -2.27061678948576     -2.36903448848613
  O           0.87509779490492     -1.87840108774117     -1.32211390232482
  Cl          4.73989783643084     -4.81146768033264     -1.19194848174369
  H           4.41749343920374     -2.52817709682758     -1.71896458446647
  H           2.00038057078828     -4.42011737800285     -1.92315896956539
  H           1.12026216102377     -2.47198250787653     -3.21608989681700
  H           2.46381400891654     -1.45448222486367     -2.61470912739608
  F           3.43015464679854      0.58214491122037     -1.65795397564565
  H           2.18607272814073      1.73962920028827     -0.62386123080162
  H           1.44233591965421      0.61978436739914     -1.81898963193418
  Cl          2.89525658554719     -3.03013860788871      1.50028345477499
  Cl          0.54105557204520     -1.62622655108630      2.40243474092299
  Cl          0.28297892885168     -3.82672131681185      0.57003967405166
