21
Coordinates from ORCA-job NEB E -44.517546972500
  C           0.38888856114141      0.81756257207883     -0.36467773561872
  C          -0.24217364631793      0.67653119760048      0.88509877855840
  C          -0.39540491685559      1.54084987312927     -1.44238004992946
  H           1.42202821262758      1.16013546849279     -0.33103051473717
  C           0.56579086101293      0.73071150939647      2.14682391151091
  C           0.39618677976552     -0.98411688614286     -1.05644596734470
  C          -0.37621112502186     -1.77881923249512     -0.18983823875510
  C          -1.66274333099534     -1.25029845262563      0.13726415143615
  O          -1.38492932131933      0.07235010151172      0.99001938797210
  C           1.77654424081756     -1.31040937893312     -1.22126111105627
  H          -0.07756117666637     -0.71227763106860     -1.99635634823302
  H           0.12845852075053     -2.39161644385909      0.54411168577698
  H          -2.26607770615423     -1.82716772319333      0.83000292881580
  H          -2.24943169128680     -0.87487274742438     -0.69971113991204
  F          -0.39648027187749      2.87887606233612     -1.14324090383122
  H          -1.44476079517877      1.23046277553468     -1.47490225937225
  H           0.07726642063867      1.44679153562143     -2.42565081861718
  Br          1.62162935896282      2.35171465840163      2.26183160430965
  Br         -0.60253332032127      0.60717011009500      3.67864864204085
  Br          1.83684727127291     -0.82809401890332      2.23061164805888
  N           2.88466707500508     -1.55548334955300     -1.35891765107260
