21
Coordinates from ORCA-job NEB_product E -44.552172374240
  C           2.38342860228137     -1.58696086965164     -0.90870732891284
  C           2.76357675554905     -1.93438949087819      0.52043140877435
  C           1.56650015246381     -0.33708138484824     -1.22928828766706
  H           3.35207942338169     -1.50627441417909     -1.42146798166883
  C           2.15180199954129     -1.28221803965806      1.75832363569345
  C           1.64239309570833     -2.83050963004910     -1.48632159993324
  C           0.47779052925196     -3.24601576897973     -0.62347474388543
  C          -0.78350830456088     -3.10742271519083     -0.98310611640264
  O           3.61944233504203     -2.75192606305759      0.71461195718672
  C           2.55808002950950     -3.94764811624962     -1.61411035528565
  H           1.28732747814519     -2.57532073299835     -2.49248364608074
  H           0.74062106776988     -3.69465621763049      0.32588621258502
  H          -1.58788535177400     -3.41357903758236     -0.33841448526933
  H          -1.06430769032702     -2.68075827638560     -1.93239217929973
  F           2.06277899058516      0.75906065988279     -0.58103337146914
  H           0.51316454858191     -0.43540376440441     -0.95124423186545
  H           1.64217810045860     -0.12465138297846     -2.30201601086792
  Br          0.29911824186696     -0.75255516631377      1.72560635777072
  Br          2.36466330538809     -2.53005301453412      3.23926619425520
  Br          3.29014180947860      0.27678000468527      2.10049201427689
  N           3.25391488165847     -4.84411657899842     -1.73365744193436
