79
Coordinates from ORCA-job A2R E -116.581394032900
  Ru         -0.50698506320863      1.77368024969340      0.01558772749624
  H          -0.41129948501816      3.32046955865419     -0.06194195829678
  N           0.91202309693789      1.90463961613886      1.55752413526957
  C           0.56092519457952      2.41009540967696      2.75230975631282
  C           2.18124228380110      1.49538035969989      1.38371583409518
  C           1.45794716968723      2.49835002075487      3.80754494907804
  C           3.12194823810415      1.56155619281722      2.40137886189306
  C           2.76097003354391      2.06405793739828      3.63809602355796
  H           1.13194584764089      2.91237088112228      4.74985072016810
  H           4.12594813785604      1.21665422932130      2.21377502390308
  H           3.47462834670130      2.12292032219855      4.44490970287810
  P          -1.96565704148746      2.05144754271586      1.74433017941993
  C          -3.43354030053579      3.25377525188058      1.64172772793561
  C          -2.48873129938037      0.52736588982905      2.77041280299842
  P           1.39126808946102      1.64915308318180     -1.16492495243797
  C           1.94405117396520      0.94469763508409     -2.78895296447482
  C           2.24024865937486      3.28659119738577     -1.41989228651896
  C          -0.83323552371435      2.93345156086793      2.91303603264043
  H          -0.83900226039400      3.97556719572502      2.56990891027207
  H          -1.15734021926512      2.90378029827203      3.95656216150050
  C           2.56802133029437      0.93751287155446      0.04824716890674
  H           3.61157245173696      1.15517224717868     -0.19881211309787
  H           2.42108425308976     -0.15252701827264      0.05682043245282
  C          -1.71897211930638      1.63973898663198     -1.36471432145481
  O          -2.45871352802499      1.52054035495013     -2.24585596521731
  H          -0.46565038258270      0.22890957124750      0.14593542128333
  C          -3.80828706587028      3.93795903536261      2.95716869963556
  C          -3.05063172727007      4.34103341735066      0.63609461250327
  C          -4.62596774740356      2.49181551724204      1.06167555323608
  H          -3.00071581380084      4.57136306966738      3.31641699244757
  H          -4.67456429308310      4.57583902631207      2.78184424237014
  H          -4.07055721646450      3.23317612067007      3.73730238769389
  H          -2.84279276428747      3.90071521986149     -0.33740596813803
  H          -3.87137351682310      5.05045918224668      0.53296794699510
  H          -2.16683577749386      4.89005777108890      0.95362102738507
  H          -4.29557675064223      1.88259963359788      0.21861760142669
  H          -5.09817203576972      1.85330226353843      1.80354172802611
  H          -5.37697813879389      3.19399699269537      0.70108763285388
  C          -1.18155242605025     -0.12763374193516      3.23029296204884
  C          -3.34691089350306      0.78515789572378      4.00679037290162
  C          -3.21064641538541     -0.43323517672870      1.82233500379328
  H          -0.69575510530970      0.45260742738001      4.01301505256885
  H          -1.38611016264490     -1.11975157885487      3.63211056603318
  H          -0.49104770624889     -0.23892377438011      2.39492008464087
  H          -4.34705522188719      1.11917067169778      3.74588934267660
  H          -3.44870036412785     -0.14844241527770      4.56079905567172
  H          -2.88656059532219      1.51328948263459      4.67153469984474
  H          -3.19913931042409     -1.44481393165337      2.22749034800920
  H          -4.24743282606015     -0.14852753098374      1.67015444130544
  H          -2.70930530850470     -0.43156532845948      0.85293008406974
  O           2.93422947917738      3.81771070106961     -0.59403884680101
  O           1.87112086032778      3.80582461182956     -2.58106710789765
  C           2.27660735495328      5.14684935475142     -2.84546101495135
  H           1.92513489142699      5.80628559917989     -2.05010661058044
  H           3.36548775342674      5.20580058435213     -2.90346165310614
  H           1.82560774545875      5.42068406518136     -3.79577290372856
  O           3.01044148588822      0.45567392307356     -3.03815531011310
  O           0.95653248601259      1.19408714979399     -3.62667161683125
  C           1.14958841411344      0.93754587937832     -5.01529483195650
  H           1.94158860245626      0.20014396657996     -5.15200221295315
  H           0.20324900369190      0.56996300366214     -5.40618012039338
  H           1.42192690741848      1.87048536690631     -5.51258445489759
  C           0.82876142153704     -2.41679487682846      0.14505660221028
  O           1.84098286648217     -2.07219391088305      0.71988517511716
  C           0.69744354779850     -2.31286820538950     -1.32870780023231
  C          -0.52995739197050     -2.13503599691847     -1.96343446522328
  C          -0.59243012629386     -2.07317484038166     -3.34224810006355
  C           0.55827527059324     -2.21650869366694     -4.10171382385929
  C           1.78404685996256     -2.38263094097963     -3.47845971462997
  C           1.85517720715775     -2.41224491323709     -2.09919052901081
  C          -0.34234828011648     -3.01173593140715      0.87912104057025
  H          -1.43182694159483     -2.01747795834582     -1.38411236917540
  H          -1.54461398883038     -1.91843482944559     -3.82781029300622
  H           0.49816328680550     -2.19712120185336     -5.18086217773141
  H           2.68593048547146     -2.48053830771863     -4.06430564282809
  H           2.80549114244932     -2.53272330754791     -1.60001477952117
  H          -0.05032164278307     -3.25572360337790      1.89769297950084
  H          -0.70579144322843     -3.89915374132840      0.36678580944768
  H          -1.14342515847700     -2.27659364095329      0.90994129208259
