79
Coordinates from ORCA-job A2S E -116.585949044070
  Ru         -0.30885655137948      1.42975626636645      0.33385826976797
  H          -0.42350175257768      2.84969808346787     -0.28783852872085
  N           0.98816838634234      2.25103239567141      1.75443057486461
  C           0.51390530382568      3.08287198026791      2.69670149370588
  C           2.29905287079174      1.94956321938024      1.76654097649483
  C           1.33065549697346      3.62797888237593      3.67737578230417
  C           3.16222764630031      2.45984688141712      2.72579497412267
  C           2.67827129514583      3.31461305415305      3.69931189000401
  H           0.90732977332181      4.29850503205420      4.41022096007024
  H           4.20582112453586      2.18968630421096      2.69372136881375
  H           3.33228233090847      3.72948700947603      4.45047063515778
  P          -1.88091286547583      2.06347354577152      1.84710045631728
  C          -3.48706913794632      2.93960292057719      1.33110569068706
  C          -2.25555787920232      0.91232679778931      3.32611855175181
  P           1.69280878360781      1.23950084585832     -0.72360275372296
  C           2.71465473325608      0.64230182102558     -2.15347455154580
  C           2.19252633156135      3.01079764632205     -1.06587148628289
  C          -0.93892075966534      3.44211133704988      2.64715776505978
  H          -1.05342307883424      4.28878326314525      1.95889925469200
  H          -1.31584969125068      3.73198619655112      3.63169466738869
  C           2.81418400937907      1.02009563043741      0.71105390938147
  H           3.85842868292883      1.22119999153415      0.45341597414136
  H           2.70857445656806     -0.02062746670470      1.03433199718664
  C          -1.40758826045764      0.62936130022195     -0.89667904488951
  O          -2.06294013462917      0.05514777248682     -1.66454369709674
  H          -0.07204059301196      0.06538916812881      1.01442039154975
  C          -4.02110397115515      3.96674799644662      2.33056192381331
  C          -3.19506227770663      3.66736766946249      0.01752959015032
  C          -4.53496330194760      1.86573102460737      1.03564916358706
  H          -3.32394993306821      4.79136575575146      2.45893885717908
  H          -4.95154230756176      4.37943826521659      1.94039629596049
  H          -4.23250426715203      3.53642755516281      3.30223082643351
  H          -2.87263613135355      2.95925438888609     -0.74385520990980
  H          -4.09564480532530      4.17325316525598     -0.33003972050432
  H          -2.41223640365334      4.41332638533426      0.13626983711310
  H          -4.07885139663458      1.06168229855355      0.45523193302549
  H          -4.96059118904335      1.45356979954036      1.94677951996900
  H          -5.34972297524048      2.29056720489287      0.44999836054094
  C          -0.90493933589174      0.63144339333451      3.99219302456987
  C          -3.20793353501842      1.44864581230475      4.39252470920219
  C          -2.78524887230495     -0.40476196271792      2.75614542102501
  H          -0.51974841118424      1.50610575908536      4.51411115071580
  H          -1.01467778514074     -0.17163333876550      4.72069943369097
  H          -0.17836139876971      0.30891536415511      3.24751804497585
  H          -4.22613734109829      1.53117065621920      4.02351702060664
  H          -3.22001243276163      0.75183114312266      5.23106942367115
  H          -2.88310077422843      2.41539622338316      4.77228437953835
  H          -3.83016162287858     -0.33335169353288      2.47015383505862
  H          -2.20187552051494     -0.68410788154244      1.87783973868593
  H          -2.69221563316340     -1.19983972208052      3.49489447440823
  O           2.67739431416005      3.77903051245716     -0.27425920848060
  O           1.86971888943570      3.30883739712790     -2.31923586865099
  C           2.00662435187406      4.66926339000151     -2.71427376102487
  H           1.29859357052077      5.28947702429327     -2.16083699485601
  H           3.02126186546529      5.02031821284780     -2.51339897962789
  H           1.78926441700142      4.70387088228598     -3.77887863680577
  O           3.89847767370284      0.46024047794191     -2.11915493697881
  O           1.93265724923517      0.55953454682523     -3.21276170350015
  C           2.55587878802911      0.22419856312280     -4.44988477656857
  H           3.19545100118528      1.04466517665190     -4.78167858905413
  H           3.16604282204990     -0.67429465751280     -4.33463670729090
  H           1.75278221815212      0.05909380521405     -5.16410429449701
  C           0.70733471021161     -1.95454591288834     -1.11764267190450
  O           1.64374864363664     -1.19477021649500     -0.91804093968086
  C          -0.00272681442353     -2.59616696414566      0.00582153424259
  C          -1.33893596394964     -2.98209748320089     -0.08783692984403
  C          -1.98022088992638     -3.52549830614259      1.00945436144222
  C          -1.29813889828434     -3.70325037928616      2.20244544574813
  C           0.03053021627642     -3.32321841551273      2.30388960150784
  C           0.67111122824006     -2.76684889829378      1.21534045411516
  C           0.23014818317750     -2.26552752585740     -2.50713053508568
  H          -1.88824161822725     -2.82094599925715     -1.00177856166552
  H          -3.02056834190168     -3.80677002282407      0.93736223024945
  H          -1.80466960563461     -4.13240547063622      3.05484054397848
  H           0.56206623443745     -3.45379772129799      3.23531140896134
  H           1.70519100737065     -2.46186731395107      1.27858864276115
  H           1.02182338198539     -2.06242937298444     -3.22300452521985
  H          -0.60319804283883     -1.59840864463887     -2.72933347315678
  H          -0.10570948918015     -3.29492182495609     -2.59533968382318
