79
Coordinates from ORCA-job TSA2S_3S E -116.539523468710
  Ru          0.04281360321736      0.73142607868743     -0.73724256798512
  H           0.03985307469358      2.25602108195873     -0.85560167954917
  N           1.26571650098788      0.98994936331954      0.96368107182209
  C           0.76351345195512      1.43992284810002      2.11912622524261
  C           2.57833925543677      0.64326719039085      0.88709947551178
  C           1.51320411515303      1.48914284244346      3.28084920964549
  C           3.37593105464312      0.65915960047507      2.05007525614002
  C           2.84236363645488      1.07051455324104      3.24311612011165
  H           1.07406087973115      1.85709327246098      4.19447318553581
  H           4.40705833947904      0.35289484799011      1.97190847077853
  H           3.44355688823000      1.09140828852690      4.13961069188641
  P          -1.61878821126238      1.00839286191532      0.83333010812594
  C          -3.07182931969386      2.17559995494383      0.48431408693889
  C          -2.23849912787585     -0.49687792388895      1.82246251199114
  P           2.09319214120803      0.76251531387974     -1.75968717841107
  C           2.77328193889988     -0.23077191829536     -3.17538148505254
  C           2.87761542991527      2.37410320929304     -2.27051739124588
  C          -0.65134449360972      1.94172467942803      2.10053712391761
  H          -0.62819563407214      2.97781066109495      1.74199168615038
  H          -1.10347440911374      1.92187803145638      3.09487377165271
  C           3.09866530353861      0.20434301082471     -0.37226575566103
  H           4.17704292877052      0.25454962795913     -0.50170867386427
  H           2.70616405652952     -1.10541342260659     -0.72233626998522
  C          -1.01866433414062      0.53304337143029     -2.23074149461093
  O          -1.68328394703208      0.43094679377830     -3.16740445061808
  H           0.33597205274626     -1.01567707345195     -0.62584917778615
  C          -3.62970075649855      2.88281005689444      1.72041656919807
  C          -2.56264147732371      3.24526248967973     -0.48436031913541
  C          -4.16710642144671      1.38417705331965     -0.23126613730914
  H          -2.88140134289867      3.52465260235351      2.17862736156636
  H          -4.46253664639414      3.51459917542118      1.41310096461586
  H          -3.99996480617450      2.19064452550043      2.46745399715348
  H          -2.23343771931627      2.79133336262524     -1.41787948263895
  H          -3.36342999355938      3.95034454386210     -0.70294107133359
  H          -1.72697011016522      3.80221717963135     -0.06526602906367
  H          -3.72811730434654      0.77696860862362     -1.02332853987091
  H          -4.71491725934266      0.74098300215341      0.45218517483126
  H          -4.88091650101574      2.06929286363873     -0.68642077385639
  C          -0.99092586421864     -1.07062620338693      2.50076337593562
  C          -3.28905889684297     -0.24490440264898      2.89970035280449
  C          -2.76069386468914     -1.51433281057533      0.80661464450003
  H          -0.68726449896764     -0.47003360880262      3.35562988723091
  H          -1.18641505921926     -2.08199029363327      2.85496801655215
  H          -0.15487764924837     -1.12879555226230      1.80333233035203
  H          -4.24856504077604      0.03787049442898      2.47637426121103
  H          -3.43702946208014     -1.16746730493287      3.46122824654117
  H          -2.96633258117685      0.52029398172816      3.60257864960539
  H          -3.75216784402332     -1.25233647027907      0.44846248572992
  H          -2.08784392779144     -1.56012676447932     -0.05176564781227
  H          -2.81239801472997     -2.50479327006862      1.25633065539507
  O           3.45100036155506      3.12675324422825     -1.53416016132028
  O           2.68858389690177      2.54319230226599     -3.57276578956862
  C           3.19741617826726      3.74461646934085     -4.14877481337187
  H           2.81039227647209      4.61042957869616     -3.60853942354900
  H           4.28791554005712      3.75030735758391     -4.09864000111126
  H           2.86094776971488      3.75469682799844     -5.18221405611393
  O           3.93183976404890     -0.50379688519601     -3.30582885010377
  O           1.79473185179432     -0.48391437388140     -4.02504069821614
  C           2.13411244264485     -1.23695754843832     -5.18653884188891
  H           2.95924259641944     -0.75796769362314     -5.71670389115711
  H           2.43346061021084     -2.24572244410111     -4.89569073707322
  H           1.24161053342788     -1.26379293997040     -5.80691876207387
  C           0.80363816112237     -2.08694494579061     -0.97734663786662
  O           2.07535485699344     -1.93269514895171     -1.41273434939841
  C           0.71750184825628     -2.97578627809171      0.25476839923723
  C          -0.28310726738496     -3.92599305657660      0.42366708202025
  C          -0.30990207999891     -4.72923584577886      1.55094322020525
  C           0.65893011994299     -4.59904536117921      2.52978738567851
  C           1.66287899979414     -3.65985886081271      2.36938336059071
  C           1.69213503015319     -2.85946871626054      1.24299363362210
  C          -0.07546776561981     -2.56175972652199     -2.13983975535995
  H          -1.04873071579624     -4.05791439690421     -0.32376695153228
  H          -1.09454227663830     -5.46436569777962      1.66129390531994
  H           0.63567150759036     -5.22821905253690      3.40747732906429
  H           2.42955498705841     -3.54963060099301      3.12225970188862
  H           2.48705043763192     -2.13671361361359      1.13162701976400
  H           0.10577646365434     -1.91192719931733     -2.99312719455060
  H          -1.13566247061608     -2.53608870811989     -1.90073886322117
  H           0.21811420979864     -3.57520708982089     -2.40808310279798
