21
Coordinates from ORCA-job NEB E -32.723825536650
  C           0.23709740928706      1.10767736230980      0.10111197254641
  C           0.10151862369033      1.09608320433459      1.48228106020067
  O           1.49460004268728      1.03351888919299     -0.41854230598093
  H          -0.47868145001633      1.68387320720263     -0.47881663331981
  Br         -1.74392680649797      1.62519923386778      2.01433739147659
  C          -0.43567270515359     -0.89652662371007     -0.19293298688414
  C          -0.51734201024593     -1.44697613540881      1.07407647341495
  C           0.59062904603219     -1.37875704359204      1.92902968610519
  O           0.71137519080828      0.36772830690794      2.28532985573037
  C          -1.66555699763859     -0.77789227905014     -1.04259756578747
  H           0.49427230454416     -1.04894912725453     -0.72769539617820
  H          -1.49794191796465     -1.54212988195115      1.52462066514491
  H           1.57880113106306     -1.46287462134185      1.49629564495342
  H           0.50317438489505     -1.76053770047827      2.93513782796247
  C           1.60730367911806      1.35939753578953     -1.78502417784373
  H           2.67191654015494      1.36080648218217     -2.00986832263521
  H           1.18854012639410      2.34899623987899     -1.99304882936716
  H           1.10486453296261      0.61797014218582     -2.41572376915211
  H          -1.49795310273099     -0.14506863767568     -1.91081733709633
  H          -2.49492057658138     -0.37439714590190     -0.46583938892076
  H          -1.95209744480772     -1.76714140748781     -1.40131386436913
