21
Coordinates from ORCA-job NEB_product E -32.772588117690
  C           0.49121218209164     -1.45912174160177     -0.81148428491341
  C           1.27645364589641     -1.04953553157641      0.41101105606090
  O           1.32364665688109     -1.50356617275393     -1.93661256192578
  H          -0.34821755530965     -0.76155878144578     -0.96327478851924
  Br          0.19626409898161      0.04150807421774      1.65241539483464
  C          -0.04481182667273     -2.89386152901719     -0.56709009571604
  C          -0.78977501152864     -2.98260266710119      0.73185170108607
  C          -0.41750059760703     -3.73618421073505      1.74887619278700
  O           2.39068333237847     -1.29766144549400      0.69749877707916
  C          -0.94864293800748     -3.29463340885235     -1.73242806488430
  H           0.82950087848695     -3.55132669858880     -0.54416234509480
  H          -1.69295515924833     -2.38896695770658      0.78888747356790
  H           0.47776623701940     -4.33561364553369      1.71370479714728
  H          -0.98835430316607     -3.78167202316380      2.66001578690359
  C           1.71943910477914     -0.23814563605170     -2.41514006713814
  H           2.28439185314389     -0.42414511179008     -3.32568819636829
  H           2.35695948999198      0.28703641980500     -1.69606972811456
  H           0.84798372000729      0.38665602997577     -2.64424798536778
  H          -0.40925756184291     -3.19751228768665     -2.67024541518411
  H          -1.83371646784345     -2.66264808349427     -1.76449003588411
  H          -1.26376977843157     -4.32764459140527     -1.61012761035595
