21
Coordinates from ORCA-job NEB_reactant E -32.754767289590
  C           1.10620441088215     -0.08349884956288     -0.26258226180356
  C           0.96313622317521     -0.90211552459013      0.77801162862441
  O           1.66635901401397     -0.49472630414681     -1.43038877891658
  H           0.77978409999621      0.94632404808649     -0.19460164119533
  Br          0.08040014437499     -0.16748735046543      2.33678184525666
  C          -0.65345481777188     -4.41956250514813     -0.66613731239390
  C          -0.53689915566089     -3.33467429027890      0.08082022334892
  C           0.46972390591521     -3.17398543318030      1.17580639854614
  O           1.42650365910865     -2.14764067132365      0.89123938136865
  C          -1.64878614338813     -4.59160079277414     -1.76137927358993
  H          -0.00301472985478     -5.26634596429767     -0.48724604447518
  H          -1.17617434065479     -2.47770781979145     -0.09059947149728
  H           1.06788779377456     -4.07757348481593      1.30248003817134
  H          -0.03381706704283     -2.93457283630344      2.12487459421875
  C           1.88271456358560      0.52243044411502     -2.37999107607409
  H           2.30042295578778      0.03301990948671     -3.25747014969916
  H           2.59151961006111      1.26998007465385     -2.00906811578257
  H           0.94565345442349      1.02006682463238     -2.65178357546304
  H          -1.13607551097573     -4.78888398140791     -2.70226974211718
  H          -2.26536050818793     -3.70373208125370     -1.87435725569097
  H          -2.29272756156198     -5.44541341163398     -1.55273941083608
