18
Coordinates from ORCA-job NEB_reactant E -43.197981519630
  C           1.75393011470025      0.40827939177204     -0.20914135040865
  C           1.45388956171827     -0.63256082909751     -1.00295569434608
  C           1.81402283709331      1.75601073900337     -0.58322471514245
  H           1.95078862102299      0.22106639256485      0.83591106288269
  Cl          1.37501547531275     -2.21584672066254     -0.32547669943636
  C           3.35073631867263      1.89646839488323     -3.47165630010835
  C           2.80980907942097      0.69244106585297     -3.40033848175013
  C           1.35694337597798      0.43379279814863     -3.14275722997544
  O           1.16601120121558     -0.69876762227063     -2.30513076692866
  C           4.80316441290653      2.10884835940254     -3.76711735575133
  H           2.79627228030886      2.80894158636512     -3.31335168883377
  H           3.41048078435281     -0.19638541131264     -3.54639296515631
  H           0.87326002563216      0.14637254147904     -4.08298307913251
  H           0.85549844511556      1.31642965142594     -2.73683587527241
  N           1.86798985626452      2.87606967156292     -0.83280527134421
  F           5.47326042384593      0.96704585398488     -3.98122894882451
  F           4.98157936540541      2.86560480779751     -4.86347699104086
  F           5.43384782103347      2.73898932910028     -2.76533764943064
