17
Coordinates from ORCA-job NEB E -37.453289496820
  C           0.30385186045341      0.96367408562771      1.90753204477852
  C          -0.64301445758630      0.20393921631130      1.23887411775661
  Br          0.96145878346041      2.51420541654239      1.12251367025873
  H           0.68948534729555      0.73366751675954      2.88370520700693
  C          -1.04764274094149     -1.11220119829932      1.93160659402183
  C           0.95332996205951     -0.90030744480180     -1.64802233039905
  C           0.78376378192676      0.45374842326364     -1.85878112778795
  C          -0.28872897491541      0.97659374034870     -2.51849730357001
  O          -1.13312927230547      0.44247210084600      0.12656105292307
  Br          2.35460892352744     -1.58463695051721     -0.66214639374901
  H           0.26091882795868     -1.63672844015954     -2.02555138879182
  H           1.50992985526232      1.12681945979839     -1.42197978027405
  H          -1.06341975264065      0.35293680078146     -2.93013005422205
  H          -0.41014150887446      2.04098334541611     -2.60634460613161
  F          -0.22729975035129     -2.11157665891243      1.50767904384209
  F          -0.92560284528907     -1.06851804082769      3.27854413013838
  H          -2.07836803903994     -1.39507137217727      1.67443712419938
