17
Coordinates from ORCA-job NEB_product E -37.545090316300
  C           3.23309000931431     -1.36910981570038     -0.48866256379730
  C           1.76137842179753     -1.22266900252898     -0.18768262414578
  Br          4.08635698800143      0.37206108482213     -0.30387114843355
  H           3.70279985436048     -2.02618069399681      0.25036760155385
  C           1.00841862785332     -2.56730163445775     -0.02015791670289
  C           3.41925782188568     -1.94653851822924     -1.89566523374295
  C           2.84588189957450     -1.08055553768270     -2.96313642172984
  C           1.95516912159962     -1.50903062707961     -3.83821793647203
  O           1.17271881298981     -0.18786708711465     -0.10545370914999
  Br          5.35919758916548     -2.18880376470659     -2.21435234378430
  H           3.00306331741852     -2.95649458370060     -1.93614406844023
  H           3.22024275787663     -0.06616083639539     -2.98985535163501
  H           1.57940697521324     -2.51912358017126     -3.82650088429568
  H           1.56060618587073     -0.85737093463206     -4.59732904454711
  F           0.58328856620502     -2.99096923326485     -1.23344009380219
  F           1.82006385575586     -3.53402903283138      0.46054134654649
  H           0.13565919511784     -2.46545620232989      0.64036039257852
