19
Coordinates from ORCA-job NEB E -34.088165786730
  C          -0.17773396094620      0.64277113725264     -0.57274100868396
  C           0.07195846135614      1.25143106837027      0.64752105655246
  O           0.84754806552512     -0.02418761687623     -1.22532159401522
  H          -0.91617934709633      1.10079475560828     -1.23140236720961
  Cl         -1.21346681516127      2.37639120036920      1.15491283225593
  C          -1.08905025536498     -1.13705794660088      0.14382158055072
  C          -0.90353396325402     -1.08425612831181      1.52049716968644
  C           0.38375375018198     -0.89260298531993      2.02087284646486
  O           0.81009041083955      0.79292442587956      1.54388189845037
  O          -2.35403835222868     -1.12260198128923     -0.33379545853023
  H          -0.34340271572359     -1.65046721196815     -0.45489633927467
  H          -1.75562599812241     -0.79070127106002      2.11773245028655
  H           1.21041804425004     -1.34405981776137      1.49001970202194
  H           0.52130053159409     -0.79762882094973      3.08665239234022
  C           1.65794570199024      0.83635947212089     -2.00263794883861
  H           2.38247730882494      0.19830074821478     -2.50449436507465
  H           2.17823657902519      1.56231160350384     -1.37094102680303
  H           1.05945697781594      1.37337202332982     -2.74726301809317
  H          -2.37015442350574     -1.29109265451194     -1.28241880208634
