20
Coordinates from ORCA-job NEB E -41.323747600940
  C           0.64694964761874     -0.51976333726003     -0.92690447621763
  C          -0.55778512633053     -1.21691656115159     -0.72449701140450
  Br          2.27253378270528     -1.43227173790819     -0.47205130582419
  H           0.76943326871172     -0.01125098853879     -1.87850662068283
  C          -1.75566727958504     -0.81765801881201     -1.57075233023864
  C           0.47983310685895      0.86189905142967      0.36758540118000
  C           0.24018243089776      0.13155521420483      1.53951924491294
  C          -0.93401042997387     -0.66771926357425      1.62020756274511
  O          -0.78832827708599     -1.76691896970406      0.42832774894379
  C           1.71824321695220      1.72949389099809      0.28682471486825
  H          -0.36820072217283      1.36282112632970     -0.09089432692599
  H           1.09238156037741     -0.14422856234856      2.14499445503021
  H          -1.86859334934842     -0.18488580688713      1.34598467584377
  H          -1.02802100006967     -1.29803440559942      2.49572554615931
  F          -2.20940302152974      0.43595941913738     -1.25070347830555
  F          -1.42664745216832     -0.75562267765995     -2.87970758684626
  H          -2.59479030315469     -1.51554794587132     -1.44475276371000
  F           2.69293187857490      1.31854230641530      1.15121084263054
  H           1.45798087480513      2.75595699943563      0.57339868059033
  H           2.16097719391701      1.73459026736471     -0.71500897274868
