20
Coordinates from ORCA-job NEB_reactant E -41.360217879610
  C           2.68025160381085      1.31206954144147     -0.37592184998580
  C           1.51478520914210      1.79978246958534      0.04819752362060
  Br          4.20845805037356      0.82824837795447      0.61714398433784
  H           2.81445975758012      1.13625481272204     -1.43082055532933
  C           0.46997811948689      2.09976917756971     -1.01550239611837
  C           2.96638082689840      4.20630131486332      1.52134632176204
  C           2.89542704043908      3.21475889213312      2.39289698168169
  C           1.83594467852302      2.15465459023555      2.41198184503200
  O           1.01166879807280      2.12790820820480      1.25544149415240
  C           4.03372701905278      5.25181409874577      1.52541309018121
  H           2.24444458263522      4.32710427781917      0.72515211119181
  H           3.63204312074183      3.12209652036867      3.17756848069047
  H           1.13217514692902      2.35582060286604      3.22753922749192
  H           2.28480732691431      1.17186239689382      2.59238225735470
  F           0.80949397967667      3.21559916922167     -1.70998507630625
  F           0.37901803784873      1.10846988222805     -1.92733021763045
  H          -0.51972738255257      2.26294722148511     -0.56649232050864
  F           4.86630899742193      5.13703854183341      2.60731743390692
  H           3.59324622893420      6.25569151632448      1.56625080046151
  H           4.66240885807107      5.17020838750396      0.62932086401374
