20
Coordinates from ORCA-job NEB_product E -41.389671018910
  C           2.10896705754635      1.26119952096391     -2.26412537661061
  C           0.71834228351960      0.72189026614989     -2.62402510885614
  Br          2.29843722357497      0.85045170155109     -0.35459915768869
  H           2.90914733641976      0.70889652269273     -2.76106954553635
  C           0.70206821757690     -0.72848074123656     -2.99276445904769
  C           2.22647256354757      2.76666616223233     -2.50183775969360
  C           3.36590950177242      3.39898228789668     -1.75033102261879
  C           3.21455476768349      4.42084593673821     -0.93110274201178
  O          -0.24761833341515      1.43138469233088     -2.57268327831819
  C           2.44742900705719      2.98901285449355     -3.99681665189684
  H           1.27467275638880      3.24435122474280     -2.23764847335047
  H           4.33670283440915      2.95576937903253     -1.92671078206813
  H           2.25165540659989      4.86827290269478     -0.74857954474496
  H           4.05064531483378      4.84541504482303     -0.40469176364623
  H           1.15738581492972     -0.84059710089021     -3.97653974583234
  H          -0.32143986204418     -1.09062600114900     -3.03331336538683
  H           1.27846327549634     -1.31490111243915     -2.28003491925533
  F           3.63159707230794      2.49962150719985     -4.40591501008638
  F           1.52294689429750      2.38487453388017     -4.76028877776338
  F           2.43196086749797      4.28387041829249     -4.31972251558725
