20
Coordinates from ORCA-job NEB_reactant E -41.373979012020
  C           1.58387015536567      0.23999175460538     -0.01269949884120
  C           1.39303726003253      0.47271394406902     -1.30946510980793
  Br          2.59604566253357      1.21620527121790      1.27672799975945
  H           1.12251270413763     -0.61816463973267      0.44329066938793
  C           0.53438188674237     -0.47159612724342     -2.10837598946074
  C           2.57188148875144      3.27588570238576     -4.01576077415464
  C           3.00581348730680      3.42033512938155     -2.77446908303421
  C           2.67535409234558      2.49181520182485     -1.65403787934609
  O           1.84236640075645      1.45519461297874     -2.12515322784686
  C           2.92083441351028      4.22418566310209     -5.11535208728762
  H           1.93438134147558      2.45992746021338     -4.31664132623689
  H           3.64455543565948      4.24752291360089     -2.49767856701468
  H           2.17827444912362      3.06663728094083     -0.86086227819746
  H           3.61277355854095      2.08913224793757     -1.24702139852751
  H           1.12110528205418     -0.88617731487445     -2.92559499548351
  H          -0.29846062681989      0.07927829977526     -2.54073355557027
  H           0.15187641410166     -1.27877898234127     -1.49400621715372
  F           3.71777174122269      5.22878573121044     -4.72606152173747
  F           3.55395566858349      3.60591966677075     -6.12950226173706
  F           1.82636918457594      4.79258618417737     -5.65460289770954
