20
Coordinates from ORCA-job NEB E -32.711698834190
  C          -0.72614623130156     -1.39152319921997      0.66059227003785
  C          -2.02272960669625     -0.90072227139599      0.77940462579281
  Cl          0.30385332363685     -1.23428254271626      2.05380866069283
  H          -0.57004054039436     -2.33495536917718      0.15074621224051
  Br         -3.24275729075553     -1.62428981247324     -0.60227024955672
  C          -0.01893868554238     -0.00933115065548     -0.62456365294773
  C          -0.34064492297359      1.15125779213323      0.07345507447399
  C          -1.69696704281957      1.48907128098547      0.26584958279027
  O          -2.31381009309167      0.22733053972197      1.24042914614426
  C           1.40523374992920     -0.40867557838117     -0.93162305262345
  H          -0.70374340031983     -0.30086172908478     -1.41756718771531
  H           0.38348182438668      1.57062296654179      0.75462792064084
  H          -2.37305708772520      1.36491874008996     -0.57477633717893
  H          -1.92323498237511      2.34832905108478      0.88161447854626
  C           2.48152708145583      0.30430221914434     -0.12250589974883
  H           1.56514948639913     -0.19586115138119     -1.99348797577879
  H           1.51828502779920     -1.48767826021015     -0.81031589612247
  H           2.45983755790389      1.37485257585687     -0.31088673885850
  H           3.45928971871168     -0.07154709063384     -0.41417644588989
  H           2.35541211377260      0.12904298977084      0.94164546506099
