20
Coordinates from ORCA-job NEB_reactant E -32.736887132840
  C           2.01287375204771     -0.18807632031375     -0.71895016607302
  C           1.31091837934101      0.39341984631395     -1.68612545504372
  Cl          3.10278233393831      0.59938369494515      0.36591418844076
  H           1.93374799214455     -1.24905460940654     -0.55383719275756
  Br          0.18406838698562     -0.74281995456661     -2.71710611650960
  C           3.89394029997767      1.57036428851086     -3.05357783481350
  C           3.50234974510727      2.41466788555035     -2.11421612838066
  C           2.06996549297476      2.65993888413779     -1.73532026469710
  O           1.17480940832717      1.63423170723567     -2.14860186483499
  C           5.30409351726919      1.27827877153267     -3.45721413997358
  H           3.15429208584734      1.00825050473812     -3.61191148732324
  H           4.20796116055345      3.00012980480283     -1.54596779785477
  H           1.68954531670820      3.55287014337035     -2.24451910924370
  H           1.98354775121180      2.81942756278449     -0.65473558107796
  C           6.36957796886456      2.03316238389649     -2.67473598028675
  H           5.40320446241508      1.50475894968547     -4.52362883880191
  H           5.46847703306372      0.20113650269048     -3.34959940426120
  H           6.25623105963408      3.10670257540105     -2.80529513342097
  H           7.35834335444544      1.74886163174126     -3.02683241987456
  H           6.30447049914306      1.79976574694993     -1.61463927321196
