21
Coordinates from ORCA-job NEB E -46.053927595210
  C          -0.21782619039808     -1.10494471064653      0.07221587181742
  C          -1.26933538188468     -0.40973383078570     -0.56129800011056
  F          -0.52828787690002     -1.70845641120169      1.23852777257762
  H           0.48936660501097     -1.71501190961120     -0.48075456427418
  O          -1.20098533199518     -0.03864421115235     -1.86761531865402
  C           0.73140970503965      0.46712583979976      0.73709968249216
  C          -0.23380275665855      1.08806064500848      1.53443025619667
  C          -1.39055967355770      1.57636370056489      0.86719831414990
  O          -2.08711993391953      0.26319686883410      0.16253903756575
  C           1.97120614070124     -0.07828771034959      1.39615061118764
  H           0.97956552624863      0.91892313831205     -0.22001211222765
  H          -0.31585476585484      0.78357684880896      2.56677415347594
  H          -1.22433488677638      2.18952344002836     -0.01446732374934
  H          -2.19404129668715      1.94173872345152      1.49290839092522
  C          -0.34164472826913     -0.73367759515338     -2.74723532955180
  H          -0.59414280057787     -0.37491132705861     -3.74349381027444
  H          -0.50888066227642     -1.81248277946645     -2.69552224600621
  H           0.70983578526389     -0.51638900872979     -2.54096234238273
  F           1.75009490827140     -0.71149431746159      2.54554988793420
  F           2.63157830105247     -0.93683488756669      0.59474562221256
  F           2.84375931416729      0.91235949437546      1.66322144669584
