21
Coordinates from ORCA-job NEB_product E -46.101673724050
  C           2.81620899660101      1.22922231192274      0.42372363352717
  C           1.53729595769383      1.55758768352653     -0.37325070956479
  F           2.44949739160507      0.59741761657393      1.58093025493146
  H           3.48059647705790      0.53450149457087     -0.10426020145464
  O           1.62244610177289      1.58336936444935     -1.70524223316504
  C           3.53054336856235      2.55946218710994      0.75058746519126
  C           2.77646164104856      3.33726920492057      1.79616691760873
  C           2.30085019387933      4.54932809200086      1.59254438092039
  O           0.51038929945852      1.83075556762276      0.17025903712347
  C           4.95769583860528      2.28632249699162      1.22660925125357
  H           3.62456536393456      3.15250774774613     -0.16634587223132
  H           2.63878488641138      2.82150328971093      2.73483730819979
  H           2.42610533773138      5.06741472039046      0.65580736061801
  H           1.76084170189283      5.07188316313864      2.36113485072014
  C           2.77345122292206      1.19068479729282     -2.43476093083081
  H           2.51650400127244      1.36407227930345     -3.47869467393171
  H           2.99083157803616      0.12953800792559     -2.29370621241112
  H           3.65183879495936      1.78600881361262     -2.17748684103674
  F           5.02872300625129      1.58853019564363      2.35609287976610
  F           5.65171431778847      1.59449883316449      0.29767186128052
  F           5.63275452251532      3.42622213238207      1.42148247348555
