21
Coordinates from ORCA-job NEB_reactant E -46.083617905600
  C           0.91818291900618      0.22617088875819     -0.57413615688482
  C           1.54995086289698      1.35388517884191     -0.24181630015004
  F          -0.13787932126765     -0.20775295219275      0.15270117509472
  H           1.14626816435361     -0.41728285926999     -1.40259640028688
  O           2.61891747027969      1.87730409632955     -0.89550199591779
  C           4.33305867956526      3.70104418915543      1.19478136214680
  C           3.30055205849391      2.93648638586327      1.50877707661231
  C           1.88357810965275      3.24433778710677      1.13831061889444
  O           1.14341857771608      2.08097321166888      0.82738784034597
  C           5.73944831495647      3.36318217102436      1.57000977985074
  H           4.24162294739354      4.61937204381161      0.63538000212830
  H           3.44000701657885      2.01754223021395      2.06344663395387
  H           1.84778217511985      3.96213553062892      0.31086013608056
  H           1.36132803449944      3.66437023981129      2.00430945526269
  C           3.16679927467802      1.14788633817035     -1.97061024114176
  H           4.03233256662384      1.72117901627020     -2.29739330059880
  H           2.45126692694049      1.05762899852482     -2.79195207385610
  H           3.48491710628913      0.15271039255719     -1.65012767713229
  F           5.84974935506816      2.23555476521189      2.28297952107965
  F           6.51880351453637      3.20395915766294      0.48290837290421
  F           6.31599524661904      4.33601318985123      2.29878217161424
