20
Coordinates from ORCA-job NEB E -34.117873084290
  C           0.75848860713890     -0.09724141200817     -0.33270476208439
  C           0.54210666541111      1.23907153059486     -0.00486750206608
  O           0.01653181919661     -0.71799123990234     -1.31384129841540
  H           1.78601303508963     -0.45791599396321     -0.23623450391494
  O           1.51965112196388      1.83166361703360      0.75947173928501
  C          -0.26068445427924     -0.90043401018228      1.27720018831229
  C          -1.50250746574532     -0.31813900084137      1.05878306035575
  C          -1.63482296232664      1.07473990374556      1.18976204118596
  O          -0.61752785574989      1.77246688338652     -0.02777935803315
  O          -0.13820455686543     -2.24133248869627      1.10202687487985
  H           0.40453208983413     -0.46092594635693      2.01987857868312
  H          -2.18867776715000     -0.86240586128516      0.43093963250494
  H          -1.16230299849474      1.54434397490004      2.04606935101360
  H          -2.58180305439852      1.51700353810785      0.91921767794752
  C           0.66262335838971     -0.75371265690919     -2.56560331140224
  H           0.01382541685046     -1.32503807871308     -3.22622614468776
  H           1.64043319082110     -1.24642830160908     -2.49410182220192
  H           0.80283680949753      0.25530127231451     -2.96886245384859
  H           1.17865206156612      2.67866634726329      1.07815871152878
  H           0.76083693925059     -2.53169207687915      1.28871330095763
