20
Coordinates from ORCA-job NEB_product E -34.162615123230
  C           1.15850290682716     -1.09493301592847      1.19526445696786
  C           0.84536939536124      0.38689752268843      0.98030997491705
  O           0.52512438226134     -1.93584249190734      0.26472870574541
  H           2.25529166849264     -1.24234818175964      1.15006616186782
  O           1.57964678867552      1.22173250896543      1.73861736733975
  C           0.64189655445966     -1.53630014366981      2.59903561920754
  C          -0.83364342043061     -1.25438948499345      2.68068491975168
  C          -1.36150972249116     -0.31892223381433      3.44520802794914
  O           0.02539354895150      0.80171409906370      0.21881779420415
  O           0.95177914369388     -2.88624547539573      2.80539871672331
  H           1.17673359896035     -0.98766004468274      3.38301037369097
  H          -1.44483732678595     -1.87267841273835      2.03951866836862
  H          -0.75809089483928      0.30717949447693      4.08235719055816
  H          -2.42151319711454     -0.13611311109512      3.46353115541564
  C           1.00923444166510     -1.82418227946651     -1.05506610435798
  H           0.47458857920697     -2.57534624007221     -1.63218046628465
  H           2.08641329879941     -2.02931438035667     -1.09403102693453
  H           0.81115734246785     -0.83464837579108     -1.47266037089893
  H           2.21119181191784      0.76568858906829      2.31036992417264
  H           0.53977109992110     -3.38758834259133      2.08891891159634
