20
Coordinates from ORCA-job NEB_reactant E -34.144735779470
  C           1.88679379663730     -0.12958645249873      0.03765314220892
  C           1.14491859339652      0.08298473983637      1.12875437934789
  O           1.95611345433747     -1.35614463738759     -0.58833269326907
  H           2.47931016139419      0.67091637792601     -0.39556607637485
  O           1.15318081425205      1.27747298007022      1.79876800671838
  C          -0.76038818867622     -2.47524933105081      4.45243658804236
  C          -1.00605858505776     -1.80712797614313      3.33459569153570
  C          -0.24984708318761     -0.59036972169510      2.91613932873315
  O           0.35994374088631     -0.87218113867180      1.65855351707075
  O          -1.41486624233826     -3.57811050582187      4.87609657314310
  H          -0.00496686433698     -2.17110760454758      5.16259104895118
  H          -1.76247344440911     -2.14769359283097      2.64100780113918
  H           0.51511451459676     -0.33331083047874      3.65708819687548
  H          -0.92730683606081      0.26782310824730      2.80326493605992
  C           1.71829422030312     -1.29593986947574     -1.97503480147701
  H           1.88002924732465     -2.30108574965677     -2.35956163801323
  H           2.41176952995349     -0.60137242206751     -2.46624946333130
  H           0.69113119976476     -0.98205645912474     -2.19340194203404
  H           1.73880698952053      1.89483291438744      1.34886704323933
  H          -2.06689901830039     -3.84579382901626      4.21543036143416
