40
Coordinates from ORCA-job P E -48.883802175540
  C          -1.61430069870957      0.38928614824466     -2.58762099369817
  C          -0.09998853424477     -1.57990110403078     -1.38254712918944
  C          -1.53375341152525     -1.87282114715131     -1.69185985984190
  C          -2.26661584382336     -0.91995924127595     -2.24547253257426
  C          -0.76349288743211      0.89736655624432     -1.40032267406394
  C          -0.04846924142968     -0.23551454593572     -0.62490989945449
  H          -1.94003882942689     -2.84010640696841     -1.43882638598674
  H          -3.30869550749398     -1.05174944449247     -2.49334340435218
  C          -2.60479613956064      1.44647859511439     -2.99274594793991
  H           0.34502101363247     -2.35091705376227     -0.75493111844264
  H          -0.93538845055081      0.20475275774779     -3.43185735679266
  H           0.46113459071978     -1.53486182874307     -2.31379059130460
  H          -1.42048927175873      1.43313987553377     -0.71225829251366
  H          -0.65127666237766     -0.42728448588105      0.27039078089166
  H          -0.04188358970456      1.62227278716151     -1.77705241887969
  N           1.28509361200084      0.06786069602745     -0.10954613242351
  C          -3.71510372485818      1.70750792152111     -2.19769573740565
  C          -4.62302594112737      2.68768311710510     -2.55301338168584
  C          -4.43205058878105      3.42601790603889     -3.70901204110290
  C          -3.32844675523253      3.17685230897569     -4.50558721714151
  C          -2.42222052432700      2.19349936485332     -4.14842776732624
  H          -3.86791038675453      1.13374052131759     -1.29428471502708
  H          -5.48293953165479      2.87723526535003     -1.92664087847019
  H          -5.14109294951138      4.19189332438208     -3.98727501880244
  H          -3.17282564510822      3.74873135468718     -5.40905449454963
  H          -1.56361592376989      2.00272992464009     -4.77779324025807
  C           2.26917912715072      0.72671981163361     -0.97353347971637
  C           3.66756432313490      0.55985184587721     -0.36014519429055
  C           2.32789310261367      0.16719937339937     -2.39328948939566
  C           1.20252371449434      0.75178893726992      1.16860077839479
  H           2.05512154854404      1.81279395857002     -1.04169752188369
  H           3.80512860707423     -0.47244478330267     -0.04973336109807
  H           3.82188009823381      1.20952743593844      0.49612728088620
  H           4.42521581322707      0.80601308833526     -1.09983992706625
  H           2.59399151840692     -0.88599301026564     -2.36938927406658
  H           3.09689020088271      0.70211231446851     -2.94796437850272
  H           1.39191222172058      0.29395772574249     -2.92586339528600
  H           0.48854362091448      0.23949140059758      1.81072102734049
  H           0.89111427824925      1.80399963460649      1.07029639784707
  H           2.16755364816315      0.72395910042548      1.66760898517302
