40
Coordinates from ORCA-job R E -48.821722924050
  C          -1.47063980128386     -0.78154846914316     -2.85186780949644
  C           0.42002218239042     -3.14037230291727     -3.01682568823353
  C          -0.60739445750291     -3.00790409577403     -2.18063131036389
  C          -1.44789599114183     -1.83967991868960     -2.02618422996564
  C           0.12082842409710      3.64964641338921     -1.95967152606676
  C          -0.26141542370390      2.80200698777661     -1.00632201001407
  H          -0.85054964479290     -3.83398303395630     -1.52299980013453
  H          -2.10446193483576     -1.86439278543440     -1.16658455233882
  C          -2.27378602657756      0.41652374041618     -2.70780678872990
  H           0.99407404424607     -4.04973283857218     -3.05977335377793
  H          -0.82705286324014     -0.78841113813901     -3.72179936105291
  H           0.73089179309409     -2.35258095568472     -3.68142542269793
  H          -0.55318051879810      4.42036972406324     -2.28408986191230
  H          -1.26035543257741      2.90264569331617     -0.60101194170206
  H           1.08369183474085      3.63153251626652     -2.43589296756642
  N           0.46497433081198      1.81282991518764     -0.39378893616541
  C          -3.20453837217856      0.59965112900687     -1.68140862622013
  C          -3.93056744077780      1.76988427720184     -1.58619800175054
  C          -3.75015592709130      2.78546719420741     -2.51182069632859
  C          -2.83619319428892      2.61875606887652     -3.53844841604711
  C          -2.10829452204177      1.44997685778182     -3.63412088867946
  H          -3.36612465579269     -0.18019417807791     -0.95264146305782
  H          -4.64446764622032      1.89360894541865     -0.78389579796645
  H          -4.31931496274100      3.69983861216331     -2.43197950264073
  H          -2.68997248315517      3.40423295354621     -4.26517172603767
  H          -1.39447405192758      1.33026115773970     -4.43701247570863
  C           1.78917229959744      1.48680911939043     -0.89037501110553
  C           2.65348562199135      0.84219183524089      0.19216248377058
  C           1.73394140825083      0.59896345458826     -2.13915616590658
  C          -0.23878219810658      0.79781894822264      0.35001378939610
  H           2.25260769589772      2.44201074566887     -1.15957519438440
  H           2.31628328004792     -0.16620811826523      0.41780610004672
  H           2.62990144512377      1.43794130284590      1.10134309500770
  H           3.68221421620847      0.78571811409422     -0.15497968258193
  H           1.33483625233001     -0.38258435736201     -1.89415592682055
  H           2.73036318990520      0.47316015052193     -2.55536151329449
  H           1.09344255655200      1.05893746616717     -2.88727550385674
  H          -1.26000174833652      1.12594110642754      0.53143658572814
  H           0.24265445456913      0.62885709719252      1.31610246312413
  H          -0.27928573274176     -0.15302933470241     -0.19263236446744
