40
Coordinates from ORCA-job TS E -48.802092735220
  C          -1.34358750229744     -0.58795570867352     -0.65212841273697
  C           0.05613453137168     -2.78877701719039      0.53538079986727
  C          -1.29362953157500     -2.78032152302969      0.38436907922916
  C          -1.99581272572567     -1.74477906841881     -0.24651617346621
  C          -0.64591795263138      0.18074281535382      1.13566906730883
  C           0.35643591120633     -0.59986300863561      1.67811860970203
  H          -1.87701461779901     -3.53697732782790      0.89509355150009
  H          -3.07448874246121     -1.75619305797880     -0.19451657101092
  C          -2.07186250731443      0.54230548090855     -1.23746564023150
  H           0.53265056626182     -3.55184681524474      1.12933774549068
  H          -0.34099216178355     -0.70120740943836     -1.04391814010500
  H           0.70154606649432     -2.23632400440124     -0.11982106643617
  H          -1.59781764749262      0.15221866463226      1.63645980284496
  H           0.11608903019355     -1.28588462665275      2.47376210954831
  H          -0.40555334139306      1.13525393002214      0.69909061007978
  N           1.70013642753575     -0.42611018166466      1.48388425594211
  C          -3.34177233621195      0.91182018689537     -0.79623444284819
  C          -4.00102426725184      1.98842275971271     -1.35753939445740
  C          -3.40388446728180      2.72561642240687     -2.36685157590468
  C          -2.13737011034378      2.37938185610806     -2.80696066367775
  C          -1.47766580604743      1.30394228779920     -2.24352992442382
  H          -3.81222913488910      0.35479155934131      0.00019264385236
  H          -4.98582893074815      2.25901121798600     -1.00374812625282
  H          -3.92030724186990      3.56755600405465     -2.80422304261489
  H          -1.66213045531178      2.95218583101041     -3.59077972485170
  H          -0.48898247881587      1.03893572154281     -2.59425212980124
  C           2.23126801718543      0.38246548941266      0.40219482291672
  C           2.93980888580908      1.62206647145706      0.96008929757122
  C           3.16552076604882     -0.40402288985655     -0.52201786451812
  C           2.61149629906367     -1.28864340442945      2.19002529586669
  H           1.38060152975254      0.71915369013960     -0.19401789769765
  H           3.82795140957988      1.34515494869601      1.52281165042136
  H           2.26918706339475      2.16776799437574      1.61909361732729
  H           3.24106706269626      2.27768972039856      0.14735647995750
  H           4.08674026885763     -0.68042028181283     -0.01582426321958
  H           3.42179634413185      0.20941573588188     -1.38234209558458
  H           2.68071460351497     -1.30894529104474     -0.88130985659642
  H           2.19842042649045     -1.53498099873228      3.16718079273588
  H           3.56105146378096     -0.77783897578249      2.34292152612671
  H           2.79925528587523     -2.22480719732087      1.65096524814666
