17
Coordinates from ORCA-job NEB_reactant E -38.192277524910
  C           1.60681293635317     -0.08949815916534     -0.13510752909716
  C           1.66098026220732     -1.29966722046497     -0.69132498670646
  Br          2.26513771569314      1.54278694462370     -0.81184076766361
  H           1.13868370507183      0.03651695932180      0.82644508999870
  C           1.04289299919408     -2.46549941907381      0.07282809456679
  C           3.85564439019189     -1.39616122001992     -5.00211434750530
  C           3.22265468136909     -1.83674318731976     -3.93272605526061
  C           2.80248877286268     -0.95950619639147     -2.78968013808412
  O           2.15242849132772     -1.79243684053724     -1.83609327066603
  H           4.13968756922350     -2.05820745873792     -5.80019704028312
  H           4.11462564762898     -0.35717265108599     -5.12186297773559
  H           2.96261878438312     -2.87777929693461     -3.81160614863872
  H           2.11548265097476     -0.18006538506745     -3.14068257523888
  H           3.67826053200065     -0.47941150916055     -2.33657955406422
  F           0.04577622348002     -3.02642364382254     -0.61921543978827
  F           1.94303072310495     -3.42435084730311      0.31014952072176
  F           0.53549391493311     -2.11148086886081      1.25930812544483
