23
Coordinates from ORCA-job NEB E -44.591661760110
  C           0.67601570342164     -0.18617169689746      0.81177849717458
  C          -0.68460115265029     -0.38464195671234      0.46759980967741
  C           1.00013080961840      0.53829030537612      2.09465762486815
  H           1.29803243725671     -1.07758096890395      0.74944358423046
  C          -1.14521453166230     -1.71139992595505     -0.08253468093209
  C           1.22732962415536      0.90879552748526     -0.65318785311573
  C           0.35532981715581      1.99953082700195     -0.61548387711583
  C          -1.04249721063545      1.71940815819288     -0.72437145721549
  O          -1.47736292791398      0.64336215519604      0.36557453868005
  F           2.54022298993489      1.15733346131082     -0.48511894566225
  H           1.11722287253590      0.15167418486995     -1.42609571019239
  H           0.68383381822164      2.88998101522832     -0.10520220427058
  H          -1.34567173658535      1.19523647879455     -1.62832387712721
  H          -1.69540902018245      2.55880190441925     -0.51233911294283
  Cl          0.10941035821257      2.02872296953877      2.37598751839371
  Cl          0.53436028837872     -0.60189213490453      3.42315384765857
  Cl          2.73777275196059      0.85378697250640      2.30241773843568
  C          -0.55036336583049     -2.05745026361589     -1.45115457724399
  H          -2.23240847488692     -1.67232357279400     -0.16155307004826
  H          -0.87960604375751     -2.49560313533112      0.62898274568664
  H          -0.79843237836017     -1.29658009183045     -2.18732717423039
  H          -0.95885500392029     -3.00487499230377     -1.79288757401571
  H           0.53076037553296     -2.15640522067174     -1.39401579069249
