23
Coordinates from ORCA-job NEB_reactant E -44.628061919220
  C           1.56941499457373      0.04827601469577     -0.45917987099574
  C           1.38761275693456      0.08629792754966     -1.79126224941934
  C           2.13163984048765      0.99873751543845      0.52212101543277
  H           1.24679787370313     -0.86995079194819      0.00782773975567
  C           0.78106994936939     -1.13245738184766     -2.45208470970765
  C           2.69210167714178      3.82072917818936     -4.36747927000200
  C           2.91785511876595      2.62969508387987     -3.84863034023276
  C           2.37879972591413      2.19844233012026     -2.52230677938293
  O           1.65940925019056      0.98989403576552     -2.73591824312509
  F           3.20683013648967      4.18410568929901     -5.54951172196664
  H           2.11379164373228      4.61423684773836     -3.91613074499494
  H           3.50743963424541      1.90399540751241     -4.38834822732714
  H           1.71172223928251      2.96417289611763     -2.11419561196598
  H           3.20873565472340      2.03023637205534     -1.82975044071003
  Cl          1.38710776120238      2.62600124202555      0.46742193146321
  Cl          1.86078235582769      0.37653276456780      2.17022880942044
  Cl          3.92271112401014      1.21211653531775      0.36159021213296
  C           1.87318652612235     -2.14310571994239     -2.80307298561803
  H           0.28281421860346     -0.80752656661767     -3.36539694226967
  H           0.04698923273592     -1.59261777126639     -1.79276590174646
  H           2.60115868060332     -1.69409843963303     -3.47334270672972
  H           1.43694395256312     -3.00810239198571     -3.29536063900392
  H           2.38748565277747     -2.47511077703170     -1.90485232300701
