19
Coordinates from ORCA-job NEB_reactant E -30.165233467980
  C           1.73778774844795     -0.05070356890675      0.52007946236837
  C           1.24536318446070     -0.71222361688337     -0.55240472479955
  N           2.30827699673521      1.19196732072349      0.43794414755735
  H           1.62402869414168     -0.47371545088378      1.50592655407027
  C           0.59820280763108     -1.94533463797008     -0.37385053928901
  C           1.83460847586185     -0.61903966083441     -5.14494882104160
  C           1.07321306336186     -0.16638194567008     -4.15190201838592
  C           0.84260757026442     -0.92034867823497     -2.88548158191903
  O           1.40199921149751     -0.16972046119412     -1.81563035253098
  N           1.99238873265858     -0.00083779394704     -6.36712405540830
  H           2.31732265502312     -1.58463439316237     -5.07130753931711
  H           0.59228813304941      0.79836002896488     -4.22034153423556
  H           1.31258353309615     -1.91246520668491     -2.93564293648020
  H          -0.23481353737067     -1.05963548751589     -2.70596810694349
  H           2.53899238346991      1.48288515279186     -0.50001698835341
  H           2.96971825508917      1.44883770817319      1.15112149014446
  N           0.07456371388518     -2.95843031365813     -0.21938041067964
  H           1.71231947303603      0.96779395401570     -6.39722132630216
  H           2.85014890566087     -0.19397294912322     -6.85775071845450
