20
Coordinates from ORCA-job NEB E -49.234667541010
  C           1.08662617211591      0.50789968456693      0.30993515955562
  C           0.52785509678651      0.87260114226752      1.53838647020649
  C           0.94047908768320      1.53354017219117     -0.80051151834792
  H           2.07633164946165      0.06209324120098      0.32386608659377
  Br          1.23185309273484     -0.04227678356672      3.10101869534419
  C          -0.15653354897112     -0.95632100509095     -0.11368410326999
  C          -1.40736647642053     -0.34628094157893      0.01984732581898
  C          -1.76950822839567      0.17377139400246      1.29540585989440
  O          -0.65996212515005      1.31366940465708      1.63365791885919
  C           0.19776173444151     -1.61048514368112     -1.42513900303830
  H           0.18096170797104     -1.58311035447218      0.70953319261405
  H          -1.89876175803684      0.04170308253323     -0.85884720624234
  H          -1.62801017834590     -0.48715867537795      2.14858907614172
  H          -2.69750314779770      0.72947728415767      1.34652448172029
  F           1.43722408356248      2.72386495059691     -0.37810146885100
  F           1.68386056941417      1.19080107921998     -1.86961591224641
  H          -0.09557994511227      1.70685186013156     -1.12668720680797
  Cl         -0.64568055193679     -3.19847379946439     -1.44460933676128
  Cl         -0.34262466781731     -0.70228744663805     -2.84555640288728
  Cl          1.93857743381288     -1.92987914565521     -1.56401210829620
