20
Coordinates from ORCA-job NEB_reactant E -49.262738720720
  C           1.66290486776097      0.13258650214349     -0.10098436441213
  C           1.07745862053510     -1.04559319971992      0.13367813826038
  C           2.03452342224015      0.54589069584422     -1.49115294493219
  H           1.88966140834420      0.80687144557964      0.70350174659729
  Br          0.62534857863398     -1.48842976985097      1.93857533066330
  C          -0.15175411823831     -5.11052397444301     -2.01146493145038
  C          -0.12818068408214     -3.79458731015309     -1.87475722869497
  C           0.07978147323987     -3.10670939881057     -0.56428379133562
  O           0.80719520578417     -1.91892629749622     -0.81846506266168
  C          -0.39283244060966     -5.84203281679668     -3.28182923168604
  H          -0.00658560490821     -5.76714893977701     -1.16422776136989
  H          -0.26257184271955     -3.12990719322106     -2.71532761634407
  H           0.62419584415028     -3.74877178750559      0.13954066015540
  H          -0.89911622069632     -2.85772798894951     -0.12624088974046
  F           2.95903174651194     -0.28940710201585     -2.03487096011905
  F           0.96603875420593      0.50167985253621     -2.32992451017854
  H           2.44559643273731      1.56539148433505     -1.52843276085887
  Cl         -1.86358930578403     -6.84810789806251     -3.10041955353922
  Cl         -0.60846773192362     -4.79165474208879     -4.68541403128172
  Cl          0.98766159481792     -6.93339156154781     -3.59940023707154
