24
Coordinates from ORCA-job NEB E -44.999556728100
  C           0.25773521623985     -1.16313062408207      0.04623074556774
  C          -0.26098459565967     -1.56115185823729     -1.19457376552494
  C          -0.42930633956968     -1.62342656676221      1.29255128799546
  H           1.33378947988542     -1.19927483339714      0.17565646827973
  O           0.58317219093013     -1.70594010108139     -2.24867740726136
  C          -0.28538520026454      0.87874282495066      0.02376773176964
  C          -1.06954924426123      0.98335524854694     -1.11588493554209
  C          -2.17935214930441      0.13699352572709     -1.26339401357126
  O          -1.48724071530561     -1.46698226145330     -1.47843053667197
  C           1.00385422295759      1.65287176056857      0.10853010803670
  H          -0.80430671162964      0.76502457923658      0.96680077911631
  H          -0.59665238569889      1.34901286422410     -2.01955866263197
  H          -2.74722339153524      0.18534995996265     -2.18118102578858
  H          -2.77145882615739     -0.08770945227364     -0.38657484925128
  F           0.05232415484550     -1.01817536544746      2.39391228014493
  F          -1.75312061384648     -1.45418804120542      1.32271327230506
  F          -0.21933430311182     -2.94490877574026      1.49840500024231
  H           1.50399279830328     -1.77984296115571     -1.97063419016414
  C           1.72624212288924      1.51724153780784      1.44308974598296
  H           0.75211785999810      2.70703813767996     -0.04330637433058
  H           1.66497720522809      1.36426754089365     -0.71210627856857
  H           1.06801538426439      1.79710701510082      2.26147656209709
  H           2.59630288279899      2.16898524812238      1.46419460968531
  H           2.06139095800402      0.49874059801465      1.61699344808347
