18
Coordinates from ORCA-job NEB_product E -38.591885922850
  C           3.05765069127241      1.56596196576540     -0.58055313042362
  C           1.86270230638197      0.99659347817276     -1.33731718062622
  C           3.11638152753311      0.94658553143691      0.72463614307704
  H           3.95247154114919      1.25512558252541     -1.13969384930306
  H           1.78680144388020     -0.10201969504644     -1.25526578008288
  C           2.99087618707341      3.10775543760890     -0.52216899792048
  C           2.06318985427986      3.56689704819788      0.57150805360762
  C           0.89787064548158      4.13562821550850      0.33291338451942
  O           1.09009549429648      1.64749856784822     -1.97059896809196
  C           4.37906046657015      3.71943360390158     -0.34761193470505
  H           2.59850301611826      3.44883602348978     -1.48768742789104
  H           2.40312528194788      3.38030408648017      1.58033944837943
  H           0.54608044693487      4.31401967154182     -0.66954974581947
  H           0.24508283233896      4.43648015823843      1.13327466078472
  N           3.12083638128227      0.43245108133942      1.74414538747701
  Cl          4.24285101749756      5.49009529781579     -0.27740144751213
  Cl          5.17354718075588      3.14706691110486      1.13957975019945
  Cl          5.42697368520596      3.29988703407062     -1.73284836566876
