22
Coordinates from ORCA-job NEB_reactant E -45.382779308660
  C           1.36810462218950     -0.46262155589114      0.29706984167370
  C           2.09104750528547     -0.86976815823288      1.36474516245976
  C           1.92842838710309     -0.32870588336530     -1.05333198177744
  H           0.32854451571891     -0.21603069584632      0.40031608111228
  O           3.38634841768756     -1.19414134934987      1.33285972299787
  C          -0.29183967930926     -0.04295513853328      5.19807707850130
  C           0.03426600068939     -1.00324192339830      4.33927000315416
  C           0.25759009692207     -0.73705555666423      2.88569333604498
  O           1.62919647160236     -1.01206051425845      2.60525069979196
  O          -0.51473105158781     -0.14117347356151      6.52045147857312
  H          -0.44197117052161      0.97924303730064      4.87490309273932
  H           0.20013102917183     -2.02200292411090      4.64793624653118
  H           0.03079999283765      0.30766254996050      2.64396323368204
  H          -0.37112498672592     -1.39590950215369      2.27132555484654
  Cl          2.59019547431185     -1.89994764887208     -1.68390412551477
  Cl          0.71125730813312      0.23596893152230     -2.19755551966643
  Cl          3.32192595383888      0.83696559737313     -1.11160388794391
  H           3.75565642386298     -1.08279980443105      0.44448449216505
  C          -0.34069561096488     -1.40464151340275      7.12355408414811
  H          -0.54198537721216     -1.26165091137157      8.18342481203447
  H           0.68220423190399     -1.76720407404004      6.98868697618004
  H          -1.04164855493702     -2.13702948867321      6.71238361826664
