23
Coordinates from ORCA-job NEB_product E -40.984243335450
  C           2.63312698962605     -0.62460196402734     -1.67930177334787
  C           1.40185213679448     -1.47701882788227     -1.79273340273513
  C           2.24675479854592      0.56531582081849     -0.77544421194857
  H           3.40881881059510     -1.21156528943313     -1.17528354177183
  F           1.42605018162201     -2.45787263076495     -0.84283237375225
  C           3.17831118288750     -0.16553860135882     -3.04911498464164
  C           2.16398368999953      0.55555360052776     -3.89046761665019
  C           2.25554830825545      1.83602477677769     -4.19551541454684
  O           0.44947590626589     -1.37368847928235     -2.47899518975813
  C           3.73772715688019     -1.36945952373343     -3.81292749818928
  H           4.03355962311342      0.49277699434491     -2.86429849735017
  H           1.33268935511906     -0.04160465587801     -4.23356823791974
  H           1.51137689929892      2.32703118408742     -4.79753145392651
  H           3.07528201947911      2.44943715008598     -3.85657584808946
  C           3.45797280888960      1.34273733340629     -0.27621127449409
  H           1.69980456896297      0.17812527836272      0.08733698871755
  H           1.57740007177655      1.22508806983661     -1.33071396617834
  H           4.15265832325046      0.68331796006583      0.23862376274386
  H           3.13498002729653      2.11100289876030      0.42140155981386
  H           3.98270795665788      1.83069956450615     -1.09279757280598
  F           4.81908340120673     -1.87533961923424     -3.16527607232377
  F           2.84662313523637     -2.38253231002680     -3.89441284213670
  H           4.05101264824027     -1.11358872995884     -4.83676053870878
