23
Coordinates from ORCA-job NEB E -42.538909008370
  C           0.69905875016697     -0.05427450605478     -0.05919098852809
  C          -0.25652308817195     -0.14738598546919      0.96550255286977
  C           0.78961098771588      1.26513756302385     -0.79476573741277
  H           1.67773228251221     -0.47813734531789      0.15845666807121
  C          -0.04442217220886     -0.98010627465659      2.17451083900654
  C          -0.07202461941381     -1.26418620102906     -1.32198826319850
  C          -1.34845290593883     -0.75120944006411     -1.51316723434358
  C          -2.20438809807993     -0.65503414906278     -0.35239433770238
  O          -1.50248383148049      0.20812005571060      0.71401735307299
  Br          1.09611980560515     -1.35033013373466     -2.83915432277758
  H           0.05823459817497     -2.16544139061198     -0.73314821129894
  H          -1.54313077866831     -0.10957898674579     -2.35897315610988
  H          -2.37379451294999     -1.60376391652472      0.16025323698903
  H          -3.14108266161797     -0.13330491693109     -0.52391611114666
  C           1.59460793694197      2.24948516487115      0.05124888730215
  H          -0.21280008947435      1.66194923781582     -0.96332762226049
  H           1.28676809593044      1.13594097087674     -1.75603237456423
  H           1.09637354750065      2.43692670474344      0.99982493486156
  H           1.69529767067658      3.19228542638399     -0.47935112092345
  H           2.58984307229254      1.86085749878224      0.25488727169838
  Br          1.69844059210232     -0.69658675458414      2.97141997097532
  Br         -1.42292775988495     -0.62045602999705      3.48327855810109
  Br         -0.16005682173024     -3.00090659142398      1.76200920731852
