24
Coordinates from ORCA-job P E -34.719633618710
  C          -1.01657427589746      0.32589450246497     -2.47917026741959
  C          -0.65946969484635     -1.61387770709418     -0.21012608539391
  C          -1.32137036524560     -1.95771255767961     -1.51005154091445
  C          -1.47160579112398     -1.10509055725250     -2.50850921698749
  C          -0.72393132954217      0.76908000008704     -1.04250279542711
  C           0.08495620343891     -0.29110578768003     -0.29231838539299
  H          -1.67832953086695     -2.97329091569354     -1.59532740351277
  H          -1.94035673525478     -1.42541596449030     -3.42782259093066
  C          -2.06759339692474      1.22672929881734     -3.14231439488915
  H          -1.41456548407664     -1.55025481118108      0.57910262548405
  H          -0.09433653800956      0.40216880867868     -3.07241959344797
  H           0.03179127697535     -2.41478983180516      0.06366416955627
  H          -1.66392733764461      0.92215960811802     -0.50942100279360
  H           0.33905388302715      0.08347994884383      0.70611805347937
  H          -0.16638512585477      1.70628334910567     -1.04328812351443
  N           1.38722822546970     -0.44946868207874     -0.99500599112390
  C          -1.61485645914026      2.67537870080843     -3.28184582666311
  H          -2.99211529692002      1.18425776808547     -2.56139988381463
  H          -2.28316252317904      0.82794198434499     -4.13596773713826
  H          -1.51417351766056      3.15388706198076     -2.31130786846443
  H          -2.34222743917371      3.23923974491560     -3.86114301060624
  H          -0.65636162132680      2.72723278002577     -3.79355933074425
  O           1.69446696095022     -1.53628715970080     -1.41432501741629
  O           2.06418591282668      0.54790041837936     -1.08814878192444
