24
Coordinates from ORCA-job R E -34.621608506830
  C          -1.35935287711743      0.06452965943627     -2.92077116423718
  C          -0.22779497989002     -2.32061291835415     -1.43741247316725
  C          -1.45087010541450     -1.81534888756433     -1.30893814045039
  C          -2.03645137493389     -0.79149061960199     -2.15580650242382
  C          -0.64606127542420      1.24464593397217     -0.00109194800950
  C           0.11903618613706      0.25904890992916      0.43720721518976
  H          -2.10096553134181     -2.19515110386748     -0.52971392327396
  H          -3.11878325501196     -0.74007560997424     -2.13925465688807
  C          -1.99016463822211      1.08395903284518     -3.80994907209177
  H           0.14634562629889     -3.07895460609798     -0.77124956111432
  H          -0.27775221418301      0.05648709127369     -2.92668272748628
  H           0.43886040419673     -2.00820128446769     -2.22325854139427
  H          -1.58156324279784      1.48931283962065      0.46791995181174
  H          -0.08682803523594     -0.37188464057734      1.28727161069835
  H          -0.33698046247569      1.83004565855829     -0.85128003023275
  N           1.36728941750124     -0.04523263223822     -0.20307127432678
  C          -1.53308587462692      2.50280468349394     -3.46881158001649
  H          -3.07839715796242      1.01960551394231     -3.74564020921633
  H          -1.69903520319123      0.86523668497813     -4.84203438402107
  H          -1.90037806382296      2.79541812597899     -2.48734024976288
  H          -1.91641555194305      3.21002356117289     -4.20056472653869
  H          -0.44681281029545      2.56156711849323     -3.46930483695851
  O           2.07987990968045     -0.85470422883223      0.35043018068192
  O           1.63710111007607      0.52384171788077     -1.23866295677146
