24
Coordinates from ORCA-job TS E -34.616327588290
  C          -0.55387560781205     -0.01583557142495     -0.77746435447013
  C           0.76395794680197     -2.34006653507926      0.43675694137059
  C          -0.56576585574489     -2.24158983147513      0.26266513630738
  C          -1.20526224828322     -1.14573921498430     -0.37934209911825
  C          -0.11099069775548      0.69209732194230      1.24288281225733
  C           0.72646453806377     -0.16234081058361      1.88646152417845
  H          -1.21265911126595     -2.97462432738669      0.72629546704896
  H          -2.28771154876525     -1.15508564128555     -0.40367978217524
  C          -1.28058521585258      1.11660119809248     -1.44684128183080
  H           1.19379076249832     -3.13403781556990      1.02327993357977
  H           0.51203503945545     -0.04473629155642     -0.95489751305074
  H           1.46164935744065     -1.73618521023848     -0.11503980979714
  H          -1.13572733786833      0.77231896022523      1.55824084428009
  H           0.43104610840519     -0.86141924352017      2.64963883743888
  H           0.32190525226503      1.53792488951168      0.73628196979021
  N           2.11617857955143     -0.09298587988744      1.66400423066823
  C          -0.34529269086484      2.20933677344232     -1.95070171109317
  H          -2.02136608826688      1.54343122586739     -0.76544060658990
  H          -1.83566478620813      0.70888303736285     -2.29782904675814
  H           0.20542336140595      2.66925547529524     -1.13380356541298
  H          -0.91199475187093      2.98751956896798     -2.45632747274258
  H           0.37456851459673      1.79807505002321     -2.65418562607210
  O           2.84194975698846     -0.71523023955123      2.41948377238740
  O           2.51792672308559      0.58443311181244      0.72956139980390
