17
Coordinates from ORCA-job NEB_product E -36.879566779910
  C           1.85840494978624      1.85693514521580     -0.05180094440223
  C           0.60834129345519      1.87129866382428     -0.91153708603751
  F           1.70494374883144      0.87264476058700      0.89202677320109
  H           2.76265474336797      1.60476317764629     -0.61952054581543
  C           0.83993157552344      1.92296499203812     -2.41783579901711
  C           1.99548352290878      3.21733959912605      0.65400486254472
  C           3.27695187420415      3.26830811496369      1.42908251983994
  C           3.33580077812821      3.29736516045476      2.74603494710209
  O          -0.50447004206813      1.83165756997501     -0.48069476654286
  H           1.98082928831296      4.01178130736970     -0.09550751920330
  H           1.13819639439264      3.33536609026234      1.31929537431729
  H           4.17749564501205      3.26559115452260      0.82968997552592
  H           2.44646371688543      3.29197048515457      3.35394766035588
  H           4.27488083796112      3.33099542240567      3.26987132442690
  Br          1.50390523809814      0.14710177441731     -2.91031176490762
  Br         -0.82506303337546      2.27812783934227     -3.32860579974795
  Br          2.15424946857581      3.25668874269453     -2.92063921163982
