15
Coordinates from ORCA-job NEB_reactant E -26.595889510760
  C           1.99967874078775      0.04753324411571      0.08081211380988
  C           1.27906750979157     -0.84506657586408      0.77452034472909
  I           2.65236258443094     -0.39890493616309     -1.84822743523795
  H           2.26989955509697      1.01045541801151      0.47077369862107
  C           0.85378986367243     -0.49534160140237      2.08403422419494
  C           0.09504353572980     -5.40577804488225      0.73921287902597
  C          -0.00985364083732     -4.18983246179113      0.24087307465023
  C           0.19394014476275     -2.93783610210156      1.03591896661450
  O           0.96421130899145     -2.04446065390739      0.24476429098703
  H          -0.07657681347028     -6.27960341168441      0.13581326113407
  H           0.34462496447393     -5.57796681472994      1.77339995728314
  H          -0.25335318394157     -4.02187897755661     -0.79830957353783
  H           0.70555178639989     -3.15188932077458      1.98338943237088
  H          -0.78067319239954     -2.47858153887099      1.26655615147594
  N           0.51028683651122     -0.21014822239880      3.14016861387905
