22
Coordinates from ORCA-job NEB_reactant E -52.455779835290
  C           1.38482819117517      0.15904547236263      0.03880926927291
  C           1.39301899078508      0.80634937684625     -1.13313450168610
  C           1.99798058051917      0.55673855981955      1.34462894866306
  H           0.86003466497580     -0.78528172294660      0.04488425401042
  N           0.67820401869623      0.12965475405480     -2.26052608709784
  C           2.93890991942957      5.26709798497172     -1.24541897031162
  C           2.98946477288256      4.00903970018453     -1.64663786891610
  C           2.62371497269557      2.84562502032835     -0.78319026337877
  O           1.88226580045642      1.93847061503591     -1.59596869446110
  C           3.34046329149093      6.42831983905068     -2.10391800201706
  H           2.63043722804029      5.54910154551894     -0.24924580857050
  H           3.30393817181232      3.75496142846957     -2.64888105903304
  H           2.02736838285024      3.16768665575258      0.07543421873288
  H           3.54040849371375      2.35716401579766     -0.42844046811976
  F           3.34124218133236      0.75016715011633      1.24758105155495
  F           1.49532883452098      1.73278445064748      1.81219313850935
  H           1.83077004614912     -0.20296496463197      2.12066077037677
  O           0.68139965923292      0.70384123807930     -3.31365854676528
  O           0.15690085192066     -0.93185492166097     -2.02689572699807
  F           4.24361684863502      7.20858500110918     -1.45380169142714
  F           3.93252104959193      6.03807472489820     -3.25431979874746
  H           2.48528304909391      7.07509407619589     -2.36845416359050
