22
Coordinates from ORCA-job NEB_product E -52.462569027790
  C           2.08369021718658      1.97969302791457     -0.91427052896383
  C           0.71316264406290      1.94846508730510     -1.53275298491830
  C           2.03753157195164      1.24610837726399      0.43855292355866
  H           2.80082346251478      1.45231803527817     -1.55529210924937
  N           0.66737192082271      1.23323449413238     -2.91566859896856
  C           2.51953613272109      3.45796258962323     -0.72949753699300
  C           3.81505298583016      3.56397040740410      0.02627996897922
  C           3.92650052937747      4.17834480617512      1.18786544480727
  O          -0.30645745877642      2.36674108887290     -1.10657486554391
  C           2.68346076045792      4.09911810544917     -2.11027118062976
  H           1.72509832481122      3.99408470566571     -0.19953554862324
  H           4.66474150638700      3.09395788789622     -0.44805018880255
  H           3.08126410593563      4.63465443892317      1.67592655019392
  H           4.86878848159015      4.23435041591408      1.70293270462000
  F           3.28641090008546      0.95118223870355      0.85394168096660
  F           1.48126592665757      2.01089427467690      1.39752055655098
  H           1.47284498217867      0.30153084594170      0.38598908300852
  O          -0.38017940275386      1.30241153096646     -3.48813850522880
  O           1.66792196366800      0.65745956394130     -3.26279012643498
  F           3.64826777812332      3.47988407950921     -2.82316878870971
  F           1.54255196834095      3.96668071240097     -2.83681759302934
  H           2.92945069882707      5.16905328604199     -2.05548035658984
