20
Coordinates from ORCA-job NEB E -41.808378529970
  C           0.88369323832208      0.48477411416372      0.06841056360052
  C           0.03941112946494     -0.01186565717453      1.09175698769802
  C           0.69067906191675      1.92511373989293     -0.35222876720762
  H           1.94761722957930      0.28879582443154      0.17344548592672
  C           0.54080442217899     -1.09223043454224      2.00392407298627
  C           0.30038484023157     -0.58177182890657     -1.38706488734646
  C          -1.08254824228567     -0.35440285938095     -1.44897338925469
  C          -1.85122376386550     -0.67868770870823     -0.29950861252943
  O          -1.23829890951588      0.15773570432941      0.96327314876576
  Cl          1.25835567271534     -0.14350387822763     -2.78050297739477
  H           0.65099067435995     -1.52962612312900     -0.98694225113638
  H          -1.45244726709058      0.39979779386173     -2.12515305153627
  H          -1.73504653100641     -1.68469438966282      0.09705239668490
  H          -2.88333704381261     -0.35259621279101     -0.31257270534621
  F           1.58041264347648      2.31263848524037     -1.27627503736822
  F          -0.51431871644064      2.24520779689827     -0.81988295365660
  F           0.90623916959889      2.73282292437472      0.70856619561567
  H           0.43824402180576     -2.06379080091933      1.51159997546929
  H          -0.06282636993897     -1.11297535726441      2.90741710958646
  H           1.58321474030620     -0.94074113248596      2.26365869644304
