20
Coordinates from ORCA-job NEB_product E -41.564181106830
  C           2.84103984130960     -0.57302091374704     -1.13927630395601
  C           1.47655879477151     -1.12794107344155     -0.81113739663427
  N           2.94739602182493      0.83803371330064     -0.81578180918247
  H           3.62897002919960     -1.12267528398321     -0.61794975652475
  C           1.43037861503470     -2.57199314381759     -0.28118808782387
  C           3.12163142030844     -0.70422603431397     -2.68474693188962
  C           2.02912026366680     -0.02989373627155     -3.46854531162650
  C           0.97781877908936     -0.66194369424440     -3.95396255487998
  O           0.46780239902654     -0.48386300435594     -0.88906326461149
  O           4.38104457686797     -0.16332837068753     -2.93977081659223
  H           3.17872226735051     -1.76321387815470     -2.95063673303615
  H           2.16115068112415      1.03258826616459     -3.61934230627036
  H           0.84036750622110     -1.72260886383403     -3.81950092560087
  H           0.20924127701624     -0.14731060853068     -4.50323788274539
  H           2.11241707975334      1.31980279543754     -1.13844018191363
  H           3.01269690337308      0.97312336903615      0.18689000973536
  Cl          1.98545995354657     -2.43181936959005      1.41252573275182
  Cl         -0.21731090962518     -3.20685165647403     -0.31252874771068
  Cl          2.50697861892349     -3.66682423055528     -1.15392692552624
  H           4.40361588121721      0.71486571806262     -2.53127980596267
