20
Coordinates from ORCA-job NEB_reactant E -41.575462951610
  C           1.51128838156377      0.12310624663748      0.29830096786190
  C           1.59576741050279     -0.86442926937188     -0.61190849759066
  N           0.93748017153822      1.33736448411563      0.04588614180936
  H           1.95959724715478     -0.00225771722710      1.27184829653186
  C           2.29213515043571     -2.14965441788341     -0.28755463770350
  C           2.97777527692959     -1.60163111227617     -4.42588104276982
  C           2.97968742172205     -0.87207986917192     -3.31766153654478
  C           1.79934785434294     -0.07921101661590     -2.85931731349952
  O           1.01540799379639     -0.74995160330268     -1.85507319505306
  O           3.99745374021189     -2.35924960625469     -4.87555340033309
  H           2.13180571690089     -1.63755818013562     -5.09752286471638
  H           3.84440265914901     -0.87069867893954     -2.66731744305127
  H           1.09484598628573      0.06957182124564     -3.68003455229736
  H           2.12629933059400      0.89241304846083     -2.46790067984134
  H           0.33354585014289      1.36071662688881     -0.76293041854889
  H           0.60819677308757      1.85964476305502      0.84026971816634
  Cl          1.75639145969504     -2.78844709133253      1.29393000255048
  Cl          1.99780195426146     -3.38267523835852     -1.51074703399350
  Cl          4.07657077154885     -1.91091116237391     -0.14151375848141
  H           4.72399885013642     -2.34496202715953     -4.23831875249535
