19
Coordinates from ORCA-job NEB E -34.098466529310
  C           0.34706358276712      0.99234546925508     -1.10327759594193
  C          -0.51134171514069      0.82032085683228     -0.01358217269531
  O          -0.13700190926753      0.75060489362874     -2.35623516614274
  H           1.08412289635205      1.78893296041247     -1.01634363511254
  O          -0.14060428261180      1.49503770072616      1.11955818942750
  C           1.40959336702685     -0.70650564520693     -0.75298678381806
  C           0.41586565464679     -1.66744384707394     -0.83084061060880
  C          -0.59331181125588     -1.63262157121034      0.16785713930102
  O          -1.34594058235659     -0.15363088587653      0.04736600318128
  Cl          2.59794178571071     -0.63379300998711     -2.02475687285198
  H           1.83480182556053     -0.41345571586063      0.19898362117176
  H           0.16700175032439     -2.07199234613314     -1.79980339092911
  H          -0.25213491910439     -1.58358515227025      1.19707405752701
  H          -1.43079385893953     -2.30363263999415      0.03315938720839
  H           0.60490172069830      0.65171931503253     -2.97042620126046
  C          -0.87656197438491      1.21184005031291      2.29636759161321
  H          -0.78556041684068      2.09072206447272      2.93154618456995
  H          -0.46245993949840      0.34294506810300      2.81562602773951
  H          -1.92558117368633      1.02219243483713      2.06071422762132
