22
Coordinates from ORCA-job NEB E -41.200284546860
  C           0.29681578520000     -0.26846688668843      0.98621493278941
  C          -1.05987997356884      0.06641721012787      1.12217589711774
  C           1.30976808832859      0.82871760923058      1.17902449464690
  H           0.60340395901457     -1.21490758445027      1.41950292169084
  N          -1.98408523064222     -0.90229789187291      1.44909444028762
  C           0.25876276730863     -0.54384647568960     -0.97285380544286
  C          -0.23622184509097      0.65532494208819     -1.47774303152366
  C          -1.54419063945737      1.04222280871750     -1.02851682558586
  O          -1.52169350037958      1.14965495206470      0.55339513749962
  C           1.63170605379061     -0.99844777943831     -1.39743444720064
  H          -0.41901718631716     -1.39151194370086     -0.92193402311815
  H           0.46478185274078      1.42967277360642     -1.74803680287557
  H          -2.32209923020423      0.29514841701326     -1.18430646202119
  H          -1.86901506051753      2.03226878894427     -1.32775601078908
  F           1.44799554345029      1.07064793252209      2.53388499064217
  H           0.97500595925082      1.76659261644673      0.72847109068264
  H           2.30418983303432      0.55323215360600      0.82366598443527
  H          -2.93138570751334     -0.57706546821543      1.56269696615236
  H          -1.69486286341257     -1.62429841735471      2.08742963851454
  F           2.52893828434468      0.01401164735497     -1.46061955345334
  F           2.15084996339618     -1.90825798056515     -0.53338640407138
  H           1.61023314724432     -1.47481142374694     -2.39296912837738
