22
Coordinates from ORCA-job NEB_reactant E -41.220825704570
  C           1.85078046836821     -0.23367848718707     -0.05836240639526
  C           1.35705086018040     -1.10271105447295     -0.95033318030982
  C           2.01101578548176      1.21890470569241     -0.34298583791983
  H           2.19201619234620     -0.59591466419188      0.89706725135699
  N           1.25134137435661     -2.46158271210200     -0.72892936448879
  C           2.61064966330781     -2.13806732767900     -4.93599515387343
  C           2.49040994507384     -1.80843510978121     -3.66121974753886
  C           1.90982551257016     -0.51582781637345     -3.17740864726551
  O           0.90354530350427     -0.72103927720588     -2.19103324865550
  C           3.20348236470671     -3.42998565816705     -5.40946082193715
  H           2.31436446588343     -1.47586308523667     -5.73623257028973
  H           2.80408259263892     -2.49274746779242     -2.88376426690871
  H           1.41360672709277      0.02170759936118     -3.98851025124968
  H           2.71960205498835      0.10589655063954     -2.77442668011929
  F           3.28668496366365      1.50966240156593     -0.82305944525847
  H           1.89369585355830      1.82080578161532      0.56246837562827
  H           1.31573892082823      1.55594585062503     -1.11812026175156
  H           0.57286772657331     -2.92831208769378     -1.31118673928005
  H           1.25643785063710     -2.75932312243203      0.23301364692280
  F           4.31155949556270     -3.20402287739308     -6.16684965418983
  F           3.60002909275606     -4.22353793080826     -4.38723090036910
  H           2.50421278592121     -4.01507421098272     -6.03264009610749
