24
Coordinates from ORCA-job P E -30.990642291110
  C          -0.86611958280808      0.42115999488456     -2.76892501139037
  C          -0.29965360114687     -1.60895729519989     -0.64347988610704
  C          -0.89311389031666     -1.95592346198075     -1.97561036982932
  C          -1.15650196369838     -1.05092006839063     -2.90277778327951
  C          -0.24288823752219      0.77212002425288     -1.40069512310665
  C          -0.67198505793729     -0.18028003294931     -0.30295462627719
  H          -1.09390835377109     -3.00341185293185     -2.15234484202152
  H          -1.58685611599071     -1.35150475961300     -3.84821087668298
  N          -2.00355936111232      1.29364922751550     -3.06275646499124
  H          -0.66571664337067     -2.29853951127553      0.12072965370442
  H          -0.11822413208444      0.67234901495767     -3.53441786271124
  H           0.78924902706404     -1.71929880114437     -0.69057215721104
  H          -0.51663453669168      1.80008978338499     -1.15815596855881
  H          -1.74251947191267     -0.11568261413315     -0.11537253805933
  H           0.84465151854339      0.72790286240794     -1.49298824110532
  I           0.24352904994561      0.41055572280008      1.59017936544884
  C          -2.32253551027391      1.36232500044737     -4.47331383704259
  C          -3.18368705030033      1.02921478542258     -2.26730585012918
  H          -1.41898871098866      1.58723512257594     -5.03826956409469
  H          -3.03307972596885      2.17436934665081     -4.62679616047503
  H          -2.76738464260218      0.43891873229151     -4.87276389039276
  H          -2.96657249465521      1.21194969129550     -1.21722319037453
  H          -3.56435139091944      0.00283013178798     -2.38120523694800
  H          -3.96730912148143      1.72264895694317     -2.56931953836492
