24
Coordinates from ORCA-job R E -30.909307099950
  C          -1.39913143877831     -0.23286169553238     -2.94820694554655
  C           0.02114471572332     -2.45940878013462     -1.48743226829148
  C          -1.29424291909677     -2.25101022096004     -1.53737060890499
  C          -1.98756224761410     -1.14530528429749     -2.15259567458936
  C          -1.25602173787246      0.91473384680234      0.20768448306152
  C           0.02806213928088      0.64598234204204      0.14649145020537
  H          -1.94267898764237     -2.97090959924406     -1.05100038901701
  H          -3.04476456568782     -1.08477503159714     -1.94003502130595
  N          -1.95524307287893      0.89913078132409     -3.46904299562338
  H           0.43168565270408     -3.32781605259877     -1.00156209123811
  H          -0.35224079830133     -0.34530336845521     -3.19006140938430
  H           0.73574005182292     -1.78873910795200     -1.93225912904010
  H          -1.89477687336567      0.36476973791459      0.87894663645771
  H           0.51533014376400     -0.11504187054160      0.73003863775600
  H          -1.72217095955523      1.67347299508065     -0.39661573725709
  I           1.34519726802149      1.65977521925900     -1.14229134941211
  C          -1.31150307370857      1.54295341577843     -4.58582242565477
  C          -3.37032857708104      1.13721188253405     -3.34452125568722
  H          -0.23513417020568      1.39599224161426     -4.52390549429243
  H          -1.51492600790866      2.61496163472304     -4.55572443250478
  H          -1.66446828568048      1.15135703292286     -5.54868169505819
  H          -3.67772288763860      0.98432805001181     -2.31061114731204
  H          -3.96431813223834      0.47532343907685     -3.98716534214872
  H          -3.58229523606235      2.16994839222929     -3.61982579521200
