24
Coordinates from ORCA-job TS E -30.893599256240
  C          -0.09273562554461     -0.29145818680826     -0.65599589062094
  C           1.44656087484537     -2.00199275275072      1.06099475682846
  C           0.11154228404455     -2.19417145349470      0.83906863771026
  C          -0.64968832995780     -1.35808081387705      0.01209482104175
  C           0.50675256939023      0.76983934565615      1.35618256214731
  C           1.37859544633645     -0.02945765024249      2.02483242957662
  H          -0.43142413846950     -2.87908814088685      1.47729821410505
  H          -1.72227248598056     -1.47438619177662      0.03934945829126
  N          -0.77434084821628      0.59868226920251     -1.43057284565990
  H           1.96304927015473     -2.62210538303564      1.77706709423776
  H           0.96899010395383     -0.29287787569595     -0.84741359646449
  H           2.07410794638323     -1.59565986480384      0.28781246659673
  H          -0.52908466892529      0.77974924375902      1.64648058403445
  H           1.11107208636441     -0.52722886905999      2.93915760850781
  H           0.84464134459505      1.56500562024508      0.71809763934112
  I           3.45811551773650      0.43918021132436      1.96763131929614
  C          -0.07573438250185      1.74354666077944     -1.95959588863550
  C          -2.19620880463774      0.77458838534836     -1.25748176284913
  H           0.97862287949594      1.50845121931521     -2.09023938946364
  H          -0.16163730765009      2.61708259367901     -1.30085931072096
  H          -0.49288596637104      2.00722046820735     -2.93322477301854
  H          -2.44525317866465      1.17327343797452     -0.26695789453167
  H          -2.70874143938088     -0.17732970195899     -1.39074794113743
  H          -2.56204314700000      1.46721742890010     -2.01297829861253
