20
Coordinates from ORCA-job NEB_product E -32.773438890890
  C           2.99914409481964      0.00508392049299     -2.16195482259311
  C           1.53282383145072     -0.39469546065029     -2.31572875909687
  I           3.36260233019277      0.44071385729301     -0.06303058674239
  H           3.61901414346554     -0.86569542206218     -2.38941216272701
  N           1.17242641447130     -1.47654866339188     -1.59606398937658
  C           3.39132309111722      1.15918052208890     -3.10337412255401
  C           3.14471305659078      2.51655591464737     -2.49711595541274
  C           1.95162170188317      3.07753281758575     -2.44050477328754
  O           0.77094314844501      0.17779347605491     -3.05808462185592
  O           4.68540605485297      1.00100480744987     -3.64568139616263
  H           2.73727530480539      1.05259071537487     -3.98047109435396
  H           4.01495061231117      3.02431032718808     -2.10543147798944
  H           1.07925973887910      2.58408710030248     -2.83554800052651
  H           1.80336592972742      4.04188624289467     -1.98531470234975
  H           0.21353546380522     -1.77961557955340     -1.63813366446019
  H           1.78545661874548     -1.91949667427900     -0.93364426937741
  C           5.77486125930944      0.97960913510466     -2.75100011074568
  H           6.66482907256354      1.02452221601472     -3.37649745859360
  H           5.80801660099509      0.05554287686584     -2.16208554379733
  H           5.78073153156902      1.83283787057861     -2.06742248799732
