20
Coordinates from ORCA-job NEB_reactant E -32.753577765660
  C           2.20086581355942     -0.31838331756985     -0.53200781932825
  C           1.48741244101633     -0.20660992755866     -1.65775200754332
  I           3.24169161354354      1.12888162177436      0.58128400251944
  H           2.30331062005937     -1.29388376619798     -0.09321267853296
  N           0.93332584873351     -1.35419626513315     -2.21937001980691
  C           3.87609384825142      0.84973433474372     -3.34005771567598
  C           3.37063903037475      1.90294561515020     -2.70956064694667
  C           1.90545550359280      2.05736346629884     -2.42401566468870
  O           1.16789444986242      0.84908144230460     -2.44538583781858
  O           5.16858251556191      0.59025289755108     -3.63508509355661
  H           3.25012171436277      0.03978240017178     -3.69075375588612
  H           3.98302253664899      2.71884867179112     -2.36160237672149
  H           1.42508212458393      2.65914017536049     -3.20597048772234
  H           1.76091365423163      2.57995535958584     -1.47117835783358
  H           0.20046477946702     -1.14630313878196     -2.88134377533465
  H           0.70546668564243     -2.09611172949939     -1.57749032654992
  C           6.13281212274060      1.52093526484997     -3.20010605043103
  H           7.09808190728181      1.11482606367858     -3.49648869668824
  H           6.10273853816807      1.64044465237437     -2.11272830548638
  H           5.98502425231728      2.49649617910602     -3.67387438596770
