20
Coordinates from ORCA-job NEB_product E -54.127277383810
  C           3.26803060568753      0.98199538481051     -0.34945156348726
  C           1.81725969056276      0.65856685749085     -0.65585666264759
  F           3.59592463384471      0.37630927554555      0.82748168708016
  H           3.92031590533383      0.55553192054311     -1.12611631160545
  C           1.36122168738008      1.10174643239798     -2.08386523243843
  C           3.46707830964186      2.51513099879961     -0.26009342947417
  C           2.73622125443604      3.05769667602096      0.94084594036731
  C           1.73311557756325      3.90854713263365      0.85048868858779
  O           1.05088886568843      0.12668473128838      0.08253572476768
  C           4.95357160297902      2.89345018976097     -0.21162597402706
  H           3.06925568657823      2.96861437746342     -1.17347039053670
  H           3.08028729090449      2.68355080723756      1.89338223284891
  H           1.37917426371906      4.28145819699790     -0.09658261250660
  H           1.22549246888274      4.26745012547587      1.72802284988052
  F           0.85654057961727      2.34451429292975     -2.05141631887493
  F           2.37545033879632      1.12077279187325     -2.96014159436912
  F           0.42432417299396      0.29665544928678     -2.56739784082491
  Cl          5.07035751845252      4.67089006598625     -0.20929392822934
  Cl          5.78046016903549      2.27149996337900      1.22293242946631
  Cl          5.79452937790241      2.28803433007864     -1.66477769397714
