20
Coordinates from ORCA-job NEB_reactant E -40.520881905210
  C           1.91122921260789     -0.13865191389140     -0.05313899992678
  C           1.13637378492462     -1.24312688761860      0.04034276440826
  N           2.26947712965625      0.46149917971169     -1.28122831330647
  H           2.30404052699054      0.35388000440591      0.81961508509883
  Cl          0.78109024431228     -1.83633857795614      1.63118262197273
  C          -0.09920951693053     -4.68447812584587     -2.68116587574710
  C          -0.51048005114589     -3.50461281666359     -2.22504433762896
  C          -0.19230952462377     -3.02718016389987     -0.84814724389084
  O           0.65333488136586     -1.87633725508012     -0.98674739312226
  O          -0.29416226681484     -5.22491560796950     -3.89260037997886
  H           0.44741376386696     -5.37577839474036     -2.05162794379438
  H          -1.04199258456684     -2.79955176693504     -2.84169017390100
  H           0.32862559826199     -3.79916481458527     -0.27209640287574
  H          -1.10068138917881     -2.72754815964902     -0.30992063344173
  O           2.98220578081129      1.44489892183571     -1.20621223074401
  O           1.85957056723067     -0.01386428809535     -2.32006107256973
  C          -0.95187961241638     -4.44051431328223     -4.86518831437129
  H          -0.96250046527892     -5.03790099608799     -5.77468541438837
  H          -0.41424907888360     -3.50549125614935     -5.04393142292013
  H          -1.97859700018874     -4.21682276750364     -4.56135431887216
