20
Coordinates from ORCA-job NEB_product E -40.517856035420
  C           1.49618877990615     -1.72994112322389     -1.33034963550228
  C           1.11824616299486     -1.48595183929232      0.10684948741229
  N           1.35893119562069     -0.46640695612049     -2.12667449573896
  H           2.54465503394115     -2.03680039772595     -1.41113058715398
  Cl          1.54286733771915     -2.87739254009698      1.10084329299222
  C           0.59484288171995     -2.83017890366940     -1.95932385057698
  C          -0.86046787283687     -2.59481574106095     -1.64753716915323
  C          -1.56618896008592     -3.39182186595421     -0.86818694893906
  O           0.61182214889395     -0.53203431793368      0.58084864869578
  O           0.88057430172316     -2.78703433041369     -3.34133758338306
  H           0.90759797878880     -3.80150322242894     -1.53861973484737
  H          -1.29337685911362     -1.72110706007214     -2.11191035144349
  H          -1.13651599961507     -4.26600119780995     -0.40489725399280
  H          -2.60283049862249     -3.19835398775258     -0.65590536140356
  O           2.37499603936534     -0.04696370629336     -2.61051849804692
  O           0.27122158676906      0.02869748330469     -2.20555692429680
  C           0.31624499643533     -3.85152074004932     -4.07041978126983
  H           0.68883306544103     -4.81572128352822     -3.70569258972614
  H           0.62740046716629     -3.70454997085063     -5.10171068458454
  H          -0.77634178621096     -3.84389829902799     -4.00916997904130
