15
Coordinates from ORCA-job NEB E -30.814671859980
  C           0.90829610155320     -1.08616369043832     -1.21460905230900
  C           1.70364383868120     -0.02247272292718     -1.11348728792748
  Br          1.45235926106069     -2.65792317761941     -2.08706935853018
  H          -0.08484648946271     -1.13827577499087     -0.80027694845445
  Cl          3.29397070667818      0.01989341020392     -1.76403169452489
  C          -1.56873439497281      0.16536534810312      1.50909997024263
  C          -0.21837300213597      0.46070520329967      1.14123425576382
  C           0.11480176231148      1.34834526133227     -0.00305233150241
  O           1.41913934509762      1.15636006297465     -0.51386931759719
  C          -2.23074974347728     -0.89926414554261      0.96586104687709
  H          -2.11472354449656      0.79077425872728      2.20316063190632
  H           0.61550659331218      0.01608140692919      1.67057270310004
  H           0.11561826683531      2.40022461517942      0.32439748136210
  H          -0.63685517039796      1.25294837067777     -0.80224280606763
  N          -2.76905353058658     -1.80659842590889      0.48431270766123
