15
Coordinates from ORCA-job NEB_product E -30.934362925770
  C           0.84239906794062      0.30689622067840      1.49810542055811
  C           2.07085539756338      0.28114320851924      2.36955653021957
  Br          0.53716460127684     -1.54872806872349      0.93018175229700
  H           1.03136378746372      0.86384236265781      0.57730113441429
  Cl          3.52998538230822     -0.04426903779818      1.44507846048968
  C          -0.37481042433818      0.87383916076282      2.24163915957323
  C          -1.56508596314805      1.00740480271968      1.32503771661747
  C          -2.17862184024453      2.15124703036012      1.09427372536843
  O           2.10729731738921      0.45265116329718      3.54048675544418
  C          -0.74086052428208      0.02163279483218      3.35849756351737
  H          -0.09664232815808      1.85664656006890      2.64489031502891
  H          -1.89708974790489      0.08598082848491      0.86689737435086
  H          -1.86485458779141      3.07497759134184      1.55328019603961
  H          -3.02790414010825      2.20897068403380      0.43652863631938
  N          -1.07029599796653     -0.65783530123521      4.21384525976191
