21
Coordinates from ORCA-job NEB E -50.276247115430
  C           0.34551113210404     -0.18693252306776     -0.87525372991668
  C          -0.95996751242622      0.31726371294248     -0.69912976550168
  C           0.52413835771977     -1.66774592817940     -1.11152289431338
  H           0.98225727735274      0.36422571601509     -1.56420946225366
  C          -1.20521014352859      1.76304961173629     -1.12709866438923
  C           1.13117516568218      0.10864573952633      0.90430229357471
  C           0.15849635904341     -0.49116207024652      1.72872964131550
  C          -1.14135444119540      0.01824023304244      1.77659759039832
  O          -1.75923402889579     -0.19933167293571      0.14612497234284
  O           2.35270885209316     -0.47534069484160      0.89356692089637
  H           1.12856886194922      1.19478149167985      0.82443992458656
  H           0.34440587858734     -1.51080440898120      2.02957130255911
  H          -1.27656295409614      1.09210425622973      1.80534824994490
  H          -1.87667481391813     -0.53803972769038      2.33802490005644
  F           1.81992638196154     -1.99221512576853     -1.24444732407620
  F           0.01263162438966     -2.47477569677392     -0.18675058944880
  F          -0.05562096032194     -2.01530846653829     -2.27799035140673
  F          -0.55337360725796      2.62304634050534     -0.28498405984702
  F          -0.69976606309960      2.00684654179758     -2.35483128224037
  H          -2.27149061274263      2.02520430891852     -1.11675764173245
  H           2.99943524659934      0.03824836262967      0.39626996945146
