21
Coordinates from ORCA-job NEB_product E -50.305361104820
  C           2.74570776238102      0.67928083330989      0.86292780978753
  C           1.33121249353467      1.18927827964492      0.77520444603613
  C           2.77832177310450     -0.82848082696026      0.62301849798541
  H           3.36128170604523      1.14197972635725      0.08245346225842
  C           1.20631033744736      2.71582058943121      0.53536603323262
  C           3.40701487716624      1.09143959575004      2.24617592195941
  C           2.79675055813618      0.30547725029765      3.37243686144562
  C           1.76078328248696      0.72327976417983      4.07410632046986
  O           0.34345688457794      0.52940312978539      0.91666139554138
  O           4.79093674033714      0.98560353413484      2.17198959281615
  H           3.21249293952507      2.16012203355508      2.38278285845788
  H           3.26615115734761     -0.64683020121928      3.58152566429360
  H           1.28674001900502      1.67139792613875      3.88120837971609
  H           1.34564091858293      0.13067278007012      4.86953807259881
  F           4.02442925272239     -1.32106081635670      0.75766165640284
  F           2.01103170990225     -1.54314824249808      1.44315312621879
  F           2.39564104142510     -1.11861956564329     -0.62787723032224
  F           1.17161821393503      3.34825804531327      1.73281958794089
  F           2.26373743336596      3.21499749949152     -0.13573114231108
  H           0.28334979822326      2.96120214962590     -0.01049562876134
  H           5.06789110074816      0.06162651559197      2.22637431423323
