21
Coordinates from ORCA-job NEB_reactant E -50.310290269860
  C           1.69992873229257      0.07074226622942     -0.26222400542079
  C           1.59072813269525      0.82235000403070      0.84448905616115
  C           1.83469997173503     -1.41422387350440     -0.17168270394470
  H           1.68140570684621      0.48048805028212     -1.25460432982505
  C           1.48689205072613      2.33147496689447      0.68205687454157
  C           4.11933037800345      1.94319175830705      3.60875448725005
  C           3.35414471509351      0.87200497001318      3.44070624397517
  C           1.87328566980671      0.93065910454505      3.24361808253811
  O           1.50041004245766      0.24672018571896      2.03714707959941
  O           5.45081952199026      1.93622463285044      3.79586057494567
  H           3.72336356145894      2.94830162546574      3.63158825803328
  H           3.78347836405552     -0.12047984266214      3.40998803976001
  H           1.51252374394518      1.96071333629225      3.26038666122620
  H           1.35635352203523      0.35853306225801      4.01980471260042
  F           2.83197359073764     -1.80087563150318      0.64197566514649
  F           0.72623140645416     -2.02404659645805      0.28142755036039
  F           2.09619368809630     -1.95285277772819     -1.37165562331600
  F           0.42742807468883      2.82533338504480      1.36556533764068
  F           2.58071465391123      2.97065571715899      1.16179359729116
  H           1.37003139318232      2.61375368650585     -0.37365750371718
  H           5.79026307978788      1.03203197025895      3.75686194515397
