17
Coordinates from ORCA-job NEB E -39.771771430700
  C           1.00950969045238     -0.71806941218494      0.25217019972278
  C          -0.43145571736076     -0.88064323857225      0.45785022538283
  Br          1.96393450663735     -0.66703940542245      1.95806584813496
  H           1.47220647492432     -1.50157969260780     -0.34805773323773
  C          -1.20828023544360     -1.75720945962323     -0.38189666226426
  C           1.20455160589633      0.70488745247386     -0.49063029574084
  C           0.53022181579738      1.71898780528625      0.29268767530088
  C          -0.85272723920648      1.52165760903998      0.54325652239275
  O          -1.05892032279514      0.04346497526347      1.11121992648731
  Br          3.10365720937399      1.03464885912891     -0.74257056201329
  H           0.77359578026347      0.54698519635810     -1.48481891261379
  H           1.11515859251562      2.35278204100213      0.94118838153370
  H          -1.48760210331294      1.43984376029884     -0.34164622783716
  H          -1.29258160151932      2.15794346676182      1.30364227468666
  Br         -0.42694000909955     -3.42347418178440     -0.86015663429152
  Br         -3.01258022843021     -1.94419839469925      0.18990680623659
  Br         -1.40174821869285     -0.62898738071905     -2.40021083187985
