17
Coordinates from ORCA-job NEB_reactant E -39.799890710080
  C           1.64412236814723      0.09437057738213     -0.14620813057520
  C           1.71396464608684      0.34258667783255     -1.45311419706713
  Br          2.12136996423546      1.22431073154597      1.29473659822691
  H           1.27330988280337     -0.85088691466886      0.21195170319578
  C           1.26213516558433     -0.66906186541900     -2.47185239321777
  C           2.60325165173526      4.73055799787366     -2.79789346740320
  C           3.04853344924275      3.49215697197973     -2.68388761358575
  C           2.64817595827334      2.58624796055047     -1.56213309503264
  O           2.12282404667210      1.41043287703089     -2.16536197311481
  Br          3.13156182054489      5.87605851746894     -4.19538871717755
  H           1.92679386818321      5.19478337248120     -2.09695157819133
  H           3.71765745505433      3.06289138299068     -3.41524410706015
  H           1.89413696654155      3.06227478712094     -0.92728951625813
  H           3.53124155310563      2.33395884846585     -0.96190617615444
  Br          0.71328234250998     -2.38405163121710     -1.78797342601450
  Br         -0.24396299114361      0.10825202490467     -3.46027706939733
  Br          2.72690185242334     -0.96138231632274     -3.73260684117279
