17
Coordinates from ORCA-job NEB_product E -39.809283741990
  C           2.11675539671605      1.11746355976956     -1.82542478986592
  C           0.79539059348471      0.74992856350921     -2.45034757027948
  Br          1.78649041519294      0.79160640712575      0.09414573874519
  H           2.93814411801734      0.46063083598357     -2.11908573695585
  C           0.67096230417666     -0.66796361414529     -2.98060948839331
  C           2.45604342567105      2.58273995067933     -2.01974496812145
  C           3.66901802971718      3.00230536956473     -1.26725648973043
  C           3.69184537961582      4.04929474457107     -0.46332839996514
  O          -0.12000020246744      1.51244630496362     -2.55417076764486
  Br          2.77361842364937      2.83149649412292     -3.97004697902999
  H           1.59056490537008      3.20688286776819     -1.78440503605773
  H           4.54990362889038      2.39642872494384     -1.43145364345674
  H           2.82132413546961      4.66340831532485     -0.30114135988360
  H           4.58343470468302      4.32775253812328      0.06947252883888
  Br          1.47358738349383     -2.02703098437816     -1.86510971279076
  Br         -1.18648016823021     -1.08818243781280     -3.29616624009437
  Br          1.63809752654961     -0.60500764011367     -4.69462708531445
