21
Coordinates from ORCA-job NEB E -50.290421157780
  C           1.05299856833331      0.15081254748267     -0.48500879177799
  C           0.54888424718635      1.44416220401589     -0.68159541373021
  C           0.82305781647072     -0.86487959552481     -1.57233904491202
  H           2.06012090452671      0.08163681142869     -0.08842756919007
  O           1.22916902732763      2.45656454817385     -0.09837036878360
  C          -0.17946738171863     -0.33529273851712      1.04345772741824
  C          -1.44133346332613     -0.10837385818023      0.50780860447851
  C          -1.76542364502589      1.21331286598879      0.10596252347246
  O          -0.65700238791879      1.64867653908222     -1.06400425041635
  C           0.18862923380614     -1.72446653968317      1.50517242474107
  H           0.25667267759051      0.41396095517763      1.69744824926689
  H          -1.96277539551857     -0.93156599386083      0.04497865805017
  H          -1.56640259931858      2.00468291783341      0.82370566534012
  H          -2.69518758300637      1.34718629236074     -0.42986677366208
  F           1.40819663899778     -0.44702624729435     -2.71895342458602
  F           1.38526851813639     -2.04186996187637     -1.29311307721106
  F          -0.45286253389058     -1.09843544508028     -1.88419953332598
  H           0.73242667610842      3.28218670013513     -0.19441694461524
  F          -0.28044031388254     -2.68790395860031      0.68823307703655
  F           1.53218780315104     -1.88012719320228      1.57936092569212
  H          -0.21671680802894     -1.92324084985925      2.51416733671451
