19
Coordinates from ORCA-job NEB E -32.880173035290
  C           0.19385917012411      1.19216920039246     -0.35396658868568
  C          -0.98056515097817      0.58419223966770     -0.53323657340045
  I           1.00000786655227     -3.05404767068262     -1.24699951752579
  H           0.50296696411011      1.99053769713060     -1.00354556045159
  C          -1.96212786171631      0.96853317373275     -1.60616095548886
  C           1.09229117148984      0.77498215161440      0.75587446564655
  C           0.53585385675806     -0.31092094697328      1.58568116618952
  C          -0.53427464136604     -1.10940314275684      1.06091289637060
  O          -1.45557508496783     -0.43939166608268      0.20952577282579
  N           2.03446004226960     -0.28071560165374      0.41635840789441
  H           1.56642388709899      1.60867523639833      1.26981145993943
  H           0.99000787690974     -0.55452651667133      2.52978802867655
  H          -1.11524747108229     -1.62830364257341      1.82086783212398
  H          -0.08623015554203     -1.96840789435762      0.38618880129957
  F          -1.69628194223286      2.21439279146695     -2.10031653243093
  H          -2.97907952096662      0.97622663701828     -1.20078749170908
  H          -1.90574908577997      0.26446960788176     -2.44487301969398
  H           1.83510059660824     -0.94155129598864     -0.34736381859402
  H           2.96415948271113     -0.28691035756309      0.80224122701396
