19
Coordinates from ORCA-job NEB E -37.486608571740
  C           0.28039067047688     -0.49265398869347     -1.19356333119797
  C          -1.06540357659937     -0.13005307775809     -1.19420195404927
  H           0.51279575282626     -1.52294884920905     -0.98416335015592
  H           0.93113232362903     -0.01870580076410     -1.91256658828550
  N          -1.47623756501219      1.04644063767477     -1.78522247536102
  C           0.73227570532989      0.21477442583719      0.59867796400807
  C          -0.18628125896487     -0.41532389762819      1.43604120652469
  C          -1.57250941334454     -0.16521365744119      1.15934213917280
  O          -1.88053002746601     -0.65681798932003     -0.31502173581138
  C           2.19536230259903     -0.05326324520779      0.79343222448944
  H           0.55244324537987      1.25786459439181      0.35415392943490
  H           0.07863340149251     -1.36549470420923      1.87316853192288
  H          -1.84830892461969      0.88764411820076      1.10674265388567
  H          -2.27773954895884     -0.74002653353106      1.74837360131217
  H          -2.46988131031753      1.21205001221764     -1.79161789600353
  H          -0.97380822579001      1.36377853905181     -2.59648445629947
  Cl          2.71905305878533      0.65702835098213      2.35352772773524
  Cl          2.57357518042582     -1.78244064325306      0.83055749374741
  Cl          3.17503821012844      0.70336170865917     -0.48117568506923
