19
Coordinates from ORCA-job NEB_product E -37.546696331820
  C           3.28411402428044      1.40950982837503      1.74112803741986
  C           1.78450296874756      1.67594048435538      1.66136320803435
  H           3.59948765459280      0.78006668402024      0.90868616782890
  H           3.79411160048553      2.37271559384768      1.66100558639203
  N           1.33467189763669      1.86018839929336      0.39969542167826
  C           3.63065825964548      0.74539621516181      3.07892373396946
  C           3.21095721463392     -0.69898461465752      3.06387634752401
  C           2.21413591222838     -1.17190488975145      3.78524819124890
  O           1.06014080653179      1.74053366160130      2.62514741330209
  C           5.11819738326913      0.86111332786872      3.39204836623596
  H           3.07798195913584      1.26910021064143      3.86666888825442
  H           3.77148429600229     -1.33699285169981      2.39419437276853
  H           1.64314516756637     -0.53788086327728      4.44175119317283
  H           1.91983344822865     -2.20589252752203      3.73371310386687
  H           0.36150285656815      2.07585622878187      0.26023065645251
  H           1.94061737592897      1.82971149741687     -0.39994572615818
  Cl          5.49092254484830      0.00807408343217      4.90836331950502
  Cl          6.11447995510681      0.15466122456817      2.10054934671637
  Cl          5.60375467456289      2.56368830754407      3.58625237178783
