95
Coordinates from ORCA-job A2S E -121.909966339200
  Ru         -0.17089253029699      2.14669944812414     -0.03588424126646
  H          -0.42411127243854      0.62889681390775      0.17702887401451
  N           1.11519287818736      1.62480332790869     -1.58646113286421
  C           0.66546056619307      1.54584806592867     -2.85473100284272
  C           2.44215222918568      1.51527758938196     -1.38350306142800
  C           1.52237286607163      1.51025347457228     -3.94381045122535
  C           3.34876796661538      1.48496910903989     -2.43517646954612
  C           2.89268725797040      1.52210884146065     -3.74067287621431
  H           1.11393226190269      1.46925163374535     -4.94224134273031
  H           4.40432227578478      1.42523204615118     -2.22049684107770
  H           3.57931514145186      1.52328197387954     -4.57263260921740
  P          -1.71495167053842      2.29529156243117     -1.71678038173771
  C          -3.37668471149902      1.36094859012238     -1.68642923125626
  C          -1.99174914855646      4.00117000394050     -2.53078346046814
  P           1.72314755105725      2.08936369327933      1.21169455969026
  N           2.55613800614780      3.47635134189721      1.74229916873609
  N           1.85669565277694      1.19557647779421      2.63028977865699
  C          -0.81159492310113      1.40064183911168     -3.06155459066295
  H          -1.05465064967221      0.33833270356022     -2.92824888699399
  H          -1.11381710369108      1.69978081135186     -4.06808530390733
  C           2.92945347662511      1.33533304591869      0.01628906348409
  H           2.90846807409612      0.25776049830315      0.23182847920064
  H           3.96246729006260      1.66931957251556      0.12747450483095
  C          -1.30852460534648      2.63316874281863      1.32122570806245
  O          -2.02840705199191      2.94127982630481      2.17667650760736
  H           0.20767576202014      3.62401838922250     -0.27795438285884
  C          -3.96253243449038      0.97042216346110     -3.04408869553293
  C          -3.13170336703936      0.07289395209573     -0.89659043970329
  C          -4.36879923002044      2.20772328824007     -0.88841475443579
  H          -3.26911829272285      0.36088122669657     -3.61912033779387
  H          -4.86090985870337      0.37630875903401     -2.87486949747617
  H          -4.24703086763517      1.82865697812515     -3.64035323494881
  H          -2.75599561442397      0.30685320468411      0.09775193228369
  H          -4.06419363020032     -0.48229766290804     -0.79593296646830
  H          -2.40982722912109     -0.57172546533369     -1.39640025531212
  H          -3.88499934530030      2.58933195396803      0.01239343109477
  H          -4.74598156374000      3.04411117093767     -1.47120786778600
  H          -5.22234170152867      1.60100469993415     -0.58651520463630
  C          -0.62786837906246      4.44741405179402     -3.06838790866953
  C          -2.99047406224578      4.05815807664202     -3.68484413211528
  C          -2.41952487544711      4.96961669874703     -1.42711741675664
  H          -0.35590297756441      3.91647231061093     -3.97880085814781
  H          -0.65360331547110      5.51201156586371     -3.29842714735864
  H           0.14763281221448      4.28831951853743     -2.32071895987151
  H          -4.01270557435170      3.92088731441837     -3.34414173967175
  H          -2.93087340942470      5.04438586201116     -4.14643214480243
  H          -2.76356836195031      3.32099985130773     -4.45266234989186
  H          -3.43367454167486      4.77498585077226     -1.08975280173408
  H          -1.74983525864086      4.87333252427490     -0.57280229348877
  H          -2.37437029193009      5.99636436526524     -1.78936753038590
  C           0.73166984334490      0.43608654522613      3.14363258433862
  C           0.09062882873773      1.08558080277471      4.36868524765228
  C           3.18604844800857      0.73492440079955      2.99791709781805
  C           3.43922880317671      0.70777128388592      4.50118774836668
  H          -0.03006502207391      0.37281900959735      2.35936848672712
  H           1.05837246302729     -0.58046655996536      3.38607030036127
  H          -0.29305553403532      2.06792813751791      4.10532582405757
  H          -0.74007591312041      0.47164472389104      4.70946389571573
  H           0.79951630731964      1.19709561589748      5.18388320115690
  H           3.37064437493663     -0.27215092141055      2.59487571260327
  H           3.89509043757499      1.42929699331946      2.53833061127363
  H           2.80480397865948     -0.02475811674511      4.99283837991091
  H           4.47734766613086      0.43810934876476      4.68443894877494
  H           3.25451451494286      1.68541816443939      4.93825093000475
  C           1.67464016298764      4.31506310023390      2.54655965668170
  C           2.27459759046893      4.61990312176956      3.91347318669458
  C           3.55210532788144      4.21546386762165      0.98848901279481
  C           3.05962925332154      4.84493879461918     -0.31301399484986
  H           1.43909871160642      5.24887436934705      2.02354760368973
  H           0.73225489541040      3.76743844755801      2.68061957359887
  H           3.22107314465945      5.14771328608174      3.81762331113190
  H           1.59027907055075      5.23782419162905      4.48939455621464
  H           2.44861661059892      3.69287467819800      4.45165949148059
  H           3.92863313324120      5.00490736540961      1.64729812071460
  H           4.39732649263868      3.55672258671502      0.76971754686540
  H           2.22658508783966      5.51741894576062     -0.12384215425796
  H           3.86352567760095      5.40823268019228     -0.78291442034026
  H           2.72309114270643      4.07238120429589     -1.00136831977495
  C           1.70924830241088     -2.14690965740476      0.05571430643773
  O           2.90261960230544     -1.91185054556977      0.06069355847631
  C           1.01163004799052     -2.58784002672429      1.28578579885127
  C          -0.36852209823718     -2.48901132889663      1.45104451426930
  C          -0.95171307052309     -2.87579575778968      2.64354260573910
  C          -0.17415615886575     -3.37611604535230      3.67550913756106
  C           1.19913579942244     -3.48067790232786      3.51955730554536
  C           1.78758398614096     -3.08190330522405      2.33570098848332
  C           0.87395698234185     -1.95721731838093     -1.17838885520267
  H          -0.98852871109217     -2.08309550593418      0.66839826146098
  H          -2.02009808125912     -2.78408980875299      2.77036767745981
  H          -0.63743701145516     -3.68008644605317      4.60265324380113
  H           1.80866318220230     -3.86706113152033      4.32342066494804
  H           2.85730899886877     -3.14879578962148      2.19780340083350
  H           1.51784448289759     -1.82917995893255     -2.04615385051955
  H           0.29193585473564     -1.04299682945626     -1.03418782512076
  H           0.19223817543188     -2.78960039133468     -1.33143027680555
