95
Coordinates from ORCA-job A3R E -121.877233997130
  Ru          1.85822915493622      3.65828932374182      0.17907661218400
  H          -0.00003898366224      2.48403247121432      0.01819391478616
  N           2.06141242671871      2.48000945945269     -1.54470598841098
  C           1.67488335841543      2.90370768173728     -2.75902443963974
  C           2.56712702585663      1.20374634379555     -1.41075988613651
  C           1.85752069171720      2.16774466788684     -3.90719503019849
  C           2.77015872962736      0.41305889801144     -2.58382179452614
  C           2.44532657350317      0.89676927743084     -3.81030606645859
  H           1.53625146855543      2.55699538943898     -4.86002365778505
  H           3.20274678402667     -0.56840167633136     -2.46180607275499
  H           2.61628263108936      0.31384558187612     -4.70351230589289
  P           1.32926765424264      5.26135784189088     -1.38646804913245
  C          -0.21759374526167      6.34156094612257     -1.18172399572201
  C           2.76992586923896      6.31288982014908     -2.03398204520941
  P           2.86961750246443      1.84085714171074      1.20385664241397
  N           4.52278096273137      1.92436042383471      1.65488445932613
  N           2.26759606095564      1.13093099614237      2.61548803292965
  C           0.93068526370580      4.21317043470940     -2.84652377134292
  H          -0.13944483631282      3.97752895713852     -2.80213641805009
  H           1.12022232966543      4.71852828305920     -3.79708462618003
  C           2.81732592019227      0.68487608909128     -0.14906687025404
  H           0.89983056756482      0.40781893231015      0.33195918577131
  H           3.23006460973493     -0.31423031047657     -0.07852486980059
  C           1.49624088974468      4.65583888928876      1.67575931252329
  O           1.20691951992951      5.30556959323580      2.59075868832482
  H           3.26059520794911      4.19946315822187      0.15030428904937
  C          -0.88456732695410      6.79661748993586     -2.47873603692519
  C          -1.19759755295871      5.45351613643039     -0.40902658629758
  C           0.12202025878776      7.54211848227422     -0.29979970065377
  H          -1.17865043333809      5.95149199552946     -3.09733112161256
  H          -1.78641389225591      7.35780298688278     -2.23323483558289
  H          -0.24082328100128      7.44399265061219     -3.06418428487539
  H          -0.75436406690287      5.11970111573915      0.53327362436080
  H          -2.10942662775232      6.00378554371592     -0.17847971620382
  H          -1.47121004480798      4.57900818860377     -0.99532761499638
  H           0.71746506195452      7.22301639783399      0.55562112012690
  H           0.66943293165377      8.30200376029101     -0.85073554015466
  H          -0.79402268066386      7.99882831119126      0.07418703630643
  C           3.79154404428693      5.31432269242554     -2.58817866180086
  C           2.40842179209839      7.30753023243368     -3.13544263324187
  C           3.40823647015983      7.04703556239897     -0.85258545248630
  H           3.44685055365293      4.84337102591391     -3.50606244485341
  H           4.72870194441435      5.82536323680628     -2.80449465386286
  H           3.99337302001622      4.53683174348098     -1.85005137331257
  H           1.80889563974539      8.13003891448759     -2.75480282789447
  H           3.32669003296468      7.73124625763987     -3.54159750662759
  H           1.87600084286951      6.82788620362347     -3.95454758937922
  H           2.80776966517707      7.88995106528226     -0.52555701055593
  H           3.52944131629166      6.36039440540805     -0.01255628161564
  H           4.38966184857693      7.42417127747011     -1.13650235267843
  C           0.99079781397401      1.54101621368103      3.16391929590238
  C           1.01139471038044      1.77944896499833      4.67164852686174
  C           2.72072840486581     -0.20910175575778      2.94717830660581
  C           3.72290998515308     -0.25001076301688      4.09939303732537
  H           0.71615218071707      2.47783560453004      2.65733790298289
  H           0.21775249130890      0.79388344222201      2.93850030445897
  H           1.80337446192887      2.47047496864625      4.94371142346600
  H           0.05883951857576      2.20495604474525      4.98058934920599
  H           1.15424621364598      0.84529099105002      5.20847440648389
  H           1.85118630044770     -0.83313640616055      3.18524251551052
  H           3.21132710197033     -0.63950467062883      2.07022225307319
  H           3.30644247366566      0.18059735571866      5.00470065734511
  H           4.00204331826472     -1.28222571560158      4.30217960923065
  H           4.61420273536930      0.30594987853375      3.82412238185078
  C           4.95122868815223      3.15573235092241      2.31322234457730
  C           4.16968375972221      3.44037898321418      3.58332024484471
  C           5.54020616764039      1.40674182764480      0.75424596728619
  C           5.86509140163224      2.30261564923348     -0.43984486915816
  H           6.01326094000761      3.04232639589668      2.55854007070051
  H           4.84193636551460      4.02056465799239      1.63987716974138
  H           4.24955967403867      2.60928316348832      4.27727838059776
  H           4.55866827289637      4.33964403997895      4.05638076747856
  H           3.12405503813852      3.60028242189088      3.33434819879035
  H           6.44997805336665      1.23937564631639      1.34435192085193
  H           5.20440118138202      0.43696795456830      0.38572137077740
  H           6.30352176089183      3.24364391247385     -0.11825327753101
  H           6.56547200924983      1.80017331673037     -1.10305103161600
  H           4.95004650404854      2.51355304868307     -0.99086393456872
  C          -0.65473702751837      1.54131023013204     -0.05505632234761
  O          -0.04030977724739      0.48257730006395      0.61825882154128
  C          -0.89996147928717      1.21483387223548     -1.52026041524756
  C          -1.66941210230314      2.04094084157348     -2.33212800057598
  C          -1.87870223721238      1.73486393542887     -3.66403689884471
  C          -1.33182150737273      0.58608949644680     -4.20883869948181
  C          -0.59535497628384     -0.26160875124952     -3.40290046702299
  C          -0.38405898362078      0.04853584448625     -2.07160935939801
  C          -1.96614665942574      1.82737161246302      0.67998995382166
  H          -2.13144287683617      2.92873712685631     -1.92399817050214
  H          -2.47597059773258      2.39496391091324     -4.27731836127783
  H          -1.49122643590249      0.34965715831401     -5.25029784411209
  H          -0.17840687531308     -1.17085726397561     -3.80958126838820
  H           0.17696471057049     -0.63428270648443     -1.45221903531511
  H          -1.75651918134282      2.00967871107391      1.73098190282205
  H          -2.60649037703896      0.95169173424490      0.60091476094549
  H          -2.48343429642613      2.68769513438946      0.26814330531157
