95
Coordinates from ORCA-job TSA2R_3R E -121.867028063770
  Ru         -0.44239568521956      0.27124627495650      0.45527406587526
  H          -0.26967414564392     -1.63862230135018      0.34824614202072
  N           0.72106479152525      0.01101691975828     -1.28375616844799
  C           0.17607375452849     -0.02918652424422     -2.50437566774757
  C           2.06314858604020     -0.15444891822608     -1.14312896766392
  C           0.94337442938101     -0.08872774450131     -3.65501521378968
  C           2.88642510957124     -0.19923883295444     -2.28696081754142
  C           2.32993363047663     -0.13881094072408     -3.53792300597336
  H           0.46732812813753     -0.10973874168874     -4.62235310933010
  H           3.95372861359399     -0.28780016910977     -2.15576472655865
  H           2.94992110305809     -0.15897655524603     -4.42165083529381
  P          -2.09914538703288      0.63346090399702     -1.10943510416352
  C          -3.80047391281293     -0.20447577028437     -0.99925109821235
  C          -2.33890643574828      2.43443568055400     -1.68574978646780
  P           1.62019532251582      0.35862047333163      1.51026476344244
  N           2.40331237781155      1.84175682962597      1.84667025178107
  N           1.96609892842599     -0.42424797096534      2.95397000382271
  C          -1.32351591432643     -0.11712810210949     -2.60579191001190
  H          -1.57421122750595     -1.18539824501029     -2.59423444480362
  H          -1.69145165316361      0.30546058046588     -3.54389435890454
  C           2.58823642241212     -0.40532979271014      0.16852425210850
  H           2.15135715917421     -1.62678730144864      0.49769015753310
  H           3.67462101909980     -0.42001657397051      0.23089478353585
  C          -1.52240919954753      0.39234649084777      1.93542143553915
  O          -2.24749221644116      0.46458381671674      2.83587769480918
  H          -0.26593215724996      1.77694744521467      0.43748122522057
  C          -4.45345422672215     -0.54396192067897     -2.33816521275601
  C          -3.54191727662084     -1.50570760721805     -0.23718263812840
  C          -4.72921549350755      0.65139009534314     -0.13846415482180
  H          -3.83447972559909     -1.22167523429242     -2.92216496587241
  H          -5.40411509143976     -1.04285699274276     -2.14949049950780
  H          -4.65548748357089      0.33912742300380     -2.93424219234272
  H          -3.09069362236150     -1.29914067253760      0.73579022080566
  H          -4.47602805741348     -2.04282272792965     -0.07489463531948
  H          -2.87433376654430     -2.15193443697060     -0.80013726482959
  H          -4.20045473194539      0.99662431871668      0.75015759827062
  H          -5.11271250426335      1.50985148993873     -0.68236531348179
  H          -5.58324752670377      0.05655205940942      0.18455921478224
  C          -0.97631638808593      2.90343582996759     -2.20741613963791
  C          -3.36636614583640      2.63299997848003     -2.79933839766502
  C          -2.70968288301263      3.29213915808978     -0.47340386795789
  H          -0.71183460336789      2.42539244969426     -3.14813532924351
  H          -0.99730845380841      3.97958608822928     -2.37450475799079
  H          -0.19811150987972      2.69349360090857     -1.47413284192918
  H          -4.38077710143276      2.45631376911272     -2.45405600065077
  H          -3.31336197658686      3.66610251461701     -3.14262999534003
  H          -3.16444253981808      1.99172043427940     -3.65511802702024
  H          -3.74878530919638      3.16466913000507     -0.18791415794959
  H          -2.08078090842508      3.02472754848255      0.37704051751330
  H          -2.55253498391127      4.34543959899455     -0.70143560329829
  C           1.01805676314888     -1.38098419553562      3.49144680021444
  C           0.80749412650894     -1.24628182444450      4.99599743373503
  C           3.36639922213862     -0.64898528076844      3.28224517132969
  C           3.86325246004583      0.21433937631166      4.44029311838013
  H           0.06263404384386     -1.19793591581840      2.98091345059073
  H           1.33516991845646     -2.40449005279545      3.25538009950121
  H           0.55729360457630     -0.22150894932957      5.25624732241681
  H          -0.01229990108473     -1.89147945378838      5.30423756236366
  H           1.69739881393458     -1.54637387340750      5.54311664657255
  H           3.51270070784578     -1.70939466170113      3.51379309904730
  H           3.97858745007218     -0.41151929909067      2.40888182624357
  H           3.27430670059450      0.05358297452181      5.33772585884086
  H           4.90104358907683     -0.03063297579116      4.65760846148211
  H           3.80313906228043      1.26335757504526      4.16520093118434
  C           1.56754661302324      2.86369409043663      2.47189881043023
  C           0.86248724520671      2.36393247151053      3.72029937405079
  C           3.35881857108203      2.41670518480035      0.91488778369026
  C           2.75284290410970      3.13077837939216     -0.29331560308144
  H           2.22176500586967      3.70334710907856      2.73365732431592
  H           0.80313140128898      3.22874183923556      1.76957695803855
  H           1.57999581844561      1.99255104489724      4.44494142528264
  H           0.29317710501036      3.17770454659537      4.16477965299718
  H           0.17640722556014      1.56202058903099      3.45371262797544
  H           3.97799776091483      3.12622236534814      1.47850002787082
  H           4.01648983180020      1.62174528482961      0.56223655014995
  H           2.19665232855190      4.01382273182718      0.00984451698432
  H           3.54152672452627      3.43591175203650     -0.97730185597495
  H           2.07754943251264      2.45771862972002     -0.81796689388573
  C           0.31033760919061     -2.73674282942448      0.29300623526552
  O           1.49554623557731     -2.67528796062727      0.90676648367792
  C           0.41969689492007     -3.09474730145699     -1.18934625198236
  C          -0.68095706296691     -3.41426683114157     -1.97618696722150
  C          -0.53415735792238     -3.73222603423142     -3.31460665517820
  C           0.72223275030378     -3.74926821513419     -3.89478625987932
  C           1.83037577876738     -3.48223234437772     -3.11214526848965
  C           1.67925104783264     -3.16854920134526     -1.77416411745574
  C          -0.62427090862674     -3.71237927962768      1.02559001927679
  H          -1.67098672377369     -3.44236914827684     -1.54534570802011
  H          -1.40712217294377     -3.97358803995807     -3.90581108471183
  H           0.83506990577764     -3.98933944513132     -4.94187978231745
  H           2.82062471430890     -3.52078456756468     -3.54250177128052
  H           2.55040658512094     -2.99869373097697     -1.16035528806980
  H          -0.63916577547324     -3.46380413129055      2.08377222611810
  H          -0.22113371214886     -4.71732645711555      0.91222942032510
  H          -1.64008146829061     -3.68739077029355      0.64354117278971
