95
Coordinates from ORCA-job TSA2S_3S E -121.866561526880
  Ru         -0.24865433649815      0.34466957529499     -0.06450247478688
  H           0.01265564507399     -1.46156934891409      0.08734744368321
  N           1.05852999241635      0.07267670168797     -1.71986561348044
  C           0.62560987352023      0.06423232256659     -2.98484108488692
  C           2.39110184547058     -0.03719268926896     -1.46992570077066
  C           1.49149506201923      0.06393990063973     -4.06639494124848
  C           3.31026961431825     -0.05858245389728     -2.53931538052475
  C           2.86399162016379      0.02358642759361     -3.83253874757449
  H           1.10041445795374      0.07483930544112     -5.07142861339845
  H           4.36300786403379     -0.13408181348510     -2.31619430361993
  H           3.55799980497333      0.03297396371987     -4.65965365428530
  P          -1.82320693608368      0.50231730283851     -1.77114248897579
  C          -3.39975689182310     -0.56129787860409     -1.90733745494597
  C          -2.24464510348321      2.29020205121698     -2.28235898448207
  P           1.74443114976823      0.58484565360209      1.10730203322246
  N           2.45776719734860      2.11759750080353      1.36568666159358
  N           2.03668719043556     -0.07372168639428      2.62330861718976
  C          -0.85134174198977     -0.07830848014441     -3.22986000087366
  H          -1.05193815276565     -1.15143954067106     -3.33826986246767
  H          -1.15122347110701      0.41408109716996     -4.15827767237520
  C           2.81546287646650     -0.24099150182249     -0.11636307905852
  H           2.39879311805599     -1.46178353325237      0.22508537703170
  H           3.89365874978428     -0.22654580390456      0.02969549562740
  C          -1.42592331895405      0.60509614077894      1.31957821571228
  O          -2.20207601183309      0.81757193713570      2.15253020892037
  H          -0.11793949236037      1.84570913612484     -0.21571251673156
  C          -4.05552606388166     -0.67329693670761     -3.28453581166109
  C          -2.97075629504214     -1.96979164531884     -1.48643598897160
  C          -4.39703073307241     -0.03434030562835     -0.87586576244865
  H          -3.32333629686023     -0.85246946578018     -4.06857200749237
  H          -4.73992994126797     -1.52167642019187     -3.27230045288448
  H          -4.63494843914078      0.20537829339695     -3.54227266552906
  H          -2.34281607941178     -1.93579718467747     -0.59721411752922
  H          -3.84513421163255     -2.57630265331930     -1.25386436696501
  H          -2.42817089895788     -2.47275573215844     -2.28529122963044
  H          -3.89778967034562      0.13637267048734      0.07867719018593
  H          -4.85225189978454      0.89715801598461     -1.20268813674568
  H          -5.19624199436620     -0.75813503179477     -0.71992438722699
  C          -0.94094527573693      2.93896816535806     -2.76051924300253
  C          -3.27727995989232      2.43191626091585     -3.39925976258707
  C          -2.73643698662571      3.03276464438505     -1.03840383792999
  H          -0.64944072396305      2.58759075585439     -3.74785682724094
  H          -1.06897284309801      4.01899905997770     -2.81478910369234
  H          -0.13145778641042      2.73403521436330     -2.06113450274779
  H          -4.27896504683713      2.20107649257235     -3.04893117997539
  H          -3.28217787878688      3.46712702420969     -3.74019699032060
  H          -3.04094079682828      1.80302144713975     -4.25456989496705
  H          -3.69206056105922      2.64840034106967     -0.69359876454268
  H          -2.01517905141801      2.92664319216574     -0.22809288533838
  H          -2.85719232367419      4.09214479280525     -1.26066189990042
  C           1.08332960171467     -1.00865728027336      3.19083426910692
  C           0.85736991489026     -0.81626864287176      4.68597311599782
  C           3.42418750207979     -0.24486523634985      3.03005542747960
  C           3.85186973354258      0.71899170395700      4.13524080237561
  H           0.13351384245774     -0.84381961925661      2.66950758438285
  H           1.39492772078268     -2.04364886786758      2.99975530740827
  H           0.59653114303424      0.21587885092871      4.90440869347952
  H           0.03841763742774     -1.45717628874700      5.00492941909186
  H           1.74202072762529     -1.08964990962340      5.25500497194920
  H           3.57485205552853     -1.28049441303675      3.35209298107249
  H           4.07381132767118     -0.06665004986064      2.17026688941101
  H           3.22634829723123      0.61745739651915      5.01635527460316
  H           4.88329419320027      0.51536187912299      4.41624573713902
  H           3.78470316122142      1.74112463904892      3.77374851177746
  C           1.55351513209934      3.14422555977778      1.87789665527675
  C           0.82237251642029      2.71152298553568      3.13655106079743
  C           3.43170366612794      2.66551658228388      0.43674577303649
  C           2.85314825060490      3.30426836082004     -0.82632699654569
  H           2.15893452526281      4.03168188737244      2.09509299547768
  H           0.80231738024218      3.41668295558260      1.12110084474750
  H           1.52649970472161      2.43147961084679      3.91350523503571
  H           0.20198035157284      3.53095102463747      3.49383236847692
  H           0.18204997857424      1.86026123291059      2.91375266645442
  H           4.01669538216228      3.41701957288004      0.98246594952181
  H           4.11654861842231      1.86795384397812      0.14736805253609
  H           2.28079486357188      4.19724541972866     -0.58955594837289
  H           3.65862375915068      3.57857168934667     -1.50376179731884
  H           2.19854374943119      2.59744641950542     -1.33195643910155
  C           0.52969654505838     -2.56096872797105      0.17918636119318
  O           1.76446373461587     -2.48844608564853      0.69868931599210
  C          -0.37121620448248     -3.37789735232510      1.08817276669120
  C          -1.50895227665565     -2.86934866477278      1.69575412561010
  C          -2.27457697749897     -3.65461747250755      2.53995958813344
  C          -1.90481168150518     -4.96241670605969      2.79637745112387
  C          -0.75781068747066     -5.47394634922250      2.21256822549467
  C           0.00296672334878     -4.68812652673560      1.36824027257922
  C           0.51633825543814     -3.15892152769024     -1.24417350587399
  H          -1.80075073960595     -1.83874156986789      1.52367291925861
  H          -3.15776643255989     -3.23760299446765      3.00189343638704
  H          -2.50031662058642     -5.57679652705649      3.45594883672147
  H          -0.45244147615932     -6.48966304083957      2.41929547850342
  H           0.91063535431454     -5.07888812415416      0.93400311139882
  H           1.04779907632621     -2.51322350307175     -1.94141135591819
  H          -0.49889525131077     -3.32443919766503     -1.59388455558524
  H           1.03654507515076     -4.11422221820509     -1.21367072635658
