21
Coordinates from ORCA-job NEB_reactant E -50.750502350660
  C           1.70996693458694     -0.22026857356370     -0.04099880503495
  C           1.42007123772804     -0.35926312113135      1.26795202593061
  C           1.63867011815481     -1.20855010306496     -1.16182341953422
  H           2.04225491756658      0.76036643108056     -0.34491482196812
  C           1.59494376922163      0.83520088191689      2.04730642437217
  C           2.31123577614245     -4.58783997524792      0.96735082492137
  C           2.12695095920814     -3.43257574158365      1.58330730034175
  C           0.82642877698694     -2.68922872085069      1.59082250607474
  O           0.97476273384490     -1.35533967052387      2.04275385050659
  C           3.60930543071100     -5.32783733257989      1.01280019391421
  H           1.54471918252082     -5.08360777768168      0.39222571590428
  H           2.92977032403462     -2.96999191749099      2.14254890780801
  H           0.16501587264069     -3.14212123470032      2.33929444808590
  H           0.32297904929189     -2.74559296205165      0.62348055494808
  F           2.44877818660406     -2.28486630864584     -0.97079197642399
  F           0.38537443971008     -1.72468919125934     -1.32412220437702
  H           1.92376558029441     -0.75050702962509     -2.11927574155159
  N           1.73993752948417      1.79474170350564      2.65127504476532
  F           4.59474740267850     -4.64087331182586      1.60439880170111
  F           3.49573401405222     -6.48735585671290      1.69111581313769
  F           4.04608776453714     -5.65660018796337     -0.21200544352194
