18
Coordinates from ORCA-job NEB E -37.801579991620
  C           0.76568885399948      0.96947425565165     -0.41760531383092
  C          -0.22135613241842      1.53039441406076      0.41712714906467
  C           0.47195414661841      0.81239541309018     -1.79601274960452
  H           1.79620823364423      1.22986582263241     -0.19832043349417
  O           0.21666402605765      2.16762917404001      1.52238051611819
  C           0.53172243676603     -0.93112376695700      0.21830716604991
  C          -0.81671306384827     -1.17188975243287     -0.01984027160724
  C          -1.75951202573965     -0.42083758015137      0.71113801145135
  O          -1.45366297149927      1.21981480228906      0.31694169626894
  N           1.52144016483469     -1.63100312791714     -0.58599531175979
  H           0.90894164470446     -0.74268305175094      1.21823027149536
  H          -1.08583210965635     -1.57934823767628     -0.98380519585670
  H          -1.61021652483062     -0.33621935991638      1.78273918284821
  H          -2.79783667121772     -0.50581438035692      0.42374956501381
  N           0.25172653332350      0.72391103177177     -2.91490543803999
  H          -0.53243940502572      2.44537548681563      2.06904820423899
  O           1.15387914564195     -2.18949451054562     -1.58766018539440
  O           2.65934371864562     -1.59044663264695     -0.17551686296169
