18
Coordinates from ORCA-job NEB_reactant E -37.839570356360
  C           1.77247054549388     -0.52839390113185     -0.09749003325946
  C           1.67130909475569     -0.34979988396838      1.23295720993245
  C           1.49252030821759     -1.68737685410917     -0.82146243464007
  H           2.09521877233789      0.32139165105531     -0.68003829165522
  O           1.95914887165201      0.84597969473152      1.76183021640520
  C           2.33748112574641     -4.44998660627426      0.85779671565682
  C           2.28028002099854     -3.34006503326247      1.58059576044735
  C           1.03306797766481     -2.57556265984790      1.88208653542365
  O           1.29253216622161     -1.22179521660226      2.19668824831923
  N           3.58825414931268     -5.13021672135987      0.66219807272824
  H           1.50264783316700     -4.92001949074888      0.36273855186484
  H           3.19542137021830     -2.95232013069996      2.01471790622108
  H           0.58053353022496     -2.97896449865338      2.79614595580423
  H           0.30769091579977     -2.65836283096544      1.06643228023112
  N           1.27225364852868     -2.61833018395341     -1.45925187432321
  H           1.84014731126309      0.81209852278435      2.72126890968492
  O           4.58615999060336     -4.64043521665320      1.14412852062195
  O           3.55196236779372     -6.15974064034075      0.02955775053688
