18
Coordinates from ORCA-job NEB_product E -37.854831821040
  C           2.74747612531922     -1.63828946853616      0.74906386353831
  C           2.07267849997482     -0.70102150562965      1.75537610861338
  C           2.34643370542555     -1.27721531865428     -0.59321781366176
  H           3.83454085591287     -1.47883389776755      0.83155225506196
  O           2.21315657825268      0.56678369578568      1.39702616917161
  C           2.43342398361175     -3.10663755415776      1.08055079084420
  C           1.17125756462996     -3.60920180665488      0.44531532240359
  C           0.06632697689856     -3.83529213879216      1.12933823715699
  O           1.51063182972849     -1.07161792685393      2.74543840423901
  N           3.58862259903569     -3.97798634724822      0.68841234746686
  H           2.35274791182352     -3.18700055816855      2.17401480151530
  H           1.21501506501416     -3.76248979016192     -0.62374124675725
  H           0.01399620912064     -3.67764020209970      2.19400496293726
  H          -0.83217384193532     -4.17594539692888      0.64670698401165
  N           2.01160951926053     -0.99822886451504     -1.64786817533335
  H           1.78805638901634      1.16688545290230      2.03109093916660
  O           4.69159472750051     -3.49067465005018      0.73941048055860
  O           3.33150530141003     -5.11109372246911      0.38342556906704
