14
Coordinates from ORCA-job NEB E -30.130429794560
  C          -0.85378856531941     -0.88325164972164      0.22263625720937
  C           0.44887295949182     -1.32795181407211      0.59668041369203
  I          -1.27291814052220     -1.35625470827486     -1.90991471346023
  H          -1.64843646059817     -1.38972548981665      0.76171829886219
  Cl          0.68904793556943     -2.43602933013624      1.87703126005556
  C          -0.93195960452364      0.68060324151481      0.42035610505992
  C           0.23612805726321      1.30405406244785     -0.17082657601216
  C           1.42978539357724      0.49127412524215     -0.49652048032142
  O           1.56511678167146     -0.75421695124788      0.14222193499623
  Cl         -2.48215889589737      1.35381782393948     -0.28119347530704
  H          -1.07218397449769      0.83047467300435      1.49412550472195
  H           0.08030615026896      2.14150648800483     -0.83138140634639
  H           2.35311382494863      1.02135730530491     -0.23780376818184
  H           1.45907453856774      0.32434222381101     -1.58712935496817
