22
Coordinates from ORCA-job NEB E -32.107649082780
  C           0.45445604538113      0.38429327223196     -0.63919597507585
  C          -0.73236707745706      0.87952865135225     -1.12667951096149
  C           0.67479795030719     -1.10519348215547     -0.61724224226135
  H           1.34999839088492      0.97024758352433     -0.81194371074416
  Br         -0.66959506839556      2.82265190385400     -1.60405245714934
  C           0.03388273493450      0.84812283985569      1.40669164281860
  C          -1.18058945742393      0.16984438773975      1.50579010147931
  C          -2.30165841768927      0.62514719769142      0.81171939666079
  O          -1.86943052138874      0.41192927231347     -0.92487253176097
  N           1.13079839326967      0.44783985719799      2.12314710020092
  H           0.01732799882532      1.91413049814795      1.21346814189129
  H          -1.15887539441383     -0.85645476195126      1.84535682531590
  H          -2.46322437410896      1.69241614386023      0.73129857234011
  H          -3.20611302300434      0.03806154265874      0.84571746070172
  C           1.29486435976404     -1.56813480857488     -1.93579530375532
  H          -0.27842280792628     -1.61289964161642     -0.46491030861342
  H           1.35012948353432     -1.37120427967625      0.20021126807165
  H           0.63463372797699     -1.33186677625484     -2.76663201440719
  H           1.45666516975680     -2.64326073181190     -1.91710903529921
  H           2.25076547230408     -1.07688653649587     -2.10560918437085
  H           2.00544525951760      0.90122934852706      1.91642520127136
  H           1.20651115535142     -0.53954148041795      2.31421656364746
