22
Coordinates from ORCA-job NEB E -41.618914630660
  C           0.15866826294450      0.80034176763541      0.16611866296128
  C          -0.84791479251086      0.18820587933134      1.08130302203588
  O          -0.10352000377186      2.18786075148793      0.07544126620633
  H           1.15836557392146      0.64337707975134      0.59092066804539
  C          -1.14886529460689      1.01510648592828      2.31024658708824
  C           0.11832753320873      0.00810902535761     -1.17529833107558
  C          -0.30482661755791     -1.35328168060028     -0.78150719407148
  C          -1.67143443583762     -1.50340760199345     -0.25363492070541
  O          -1.93602075532346     -0.54218859153622      0.73007157528674
  O           1.30626767344098      0.08620418650273     -1.92423182020484
  H          -0.62595327332888      0.50760160946699     -1.81432238050964
  H           0.17766550866925     -2.20722865637748     -1.22217793109966
  H          -1.81380607902292     -2.48375985575200      0.21632561795935
  H          -2.44312939514513     -1.39860890962610     -1.03120138821038
  H           0.67377499650439      2.64113533848196     -0.26895770442067
  F          -1.65994193927664      0.23729134080838      3.29773526093238
  F          -0.01431648203395      1.55780051106067      2.81106627381809
  H          -1.86738924421833      1.83605461425626      2.13678605675732
  C           2.47310028236247     -0.45033527776946     -1.33667433149803
  H           3.12899353250755     -0.72921027303497     -2.16032607633317
  H           2.25438078440324     -1.33329581260501     -0.73232596483675
  H           2.98757416467190      0.29222806922607     -0.71535694812540
