22
Coordinates from ORCA-job NEB_reactant E -41.687655108420
  C           1.50458506293989     -0.11312919212753     -0.27027654063277
  C           1.40304339531767     -1.22281976766887      0.46889157486327
  O           1.16700750281907     -0.01636213061191     -1.59194215037001
  H           1.86708941257746      0.78890626481694      0.20337104997325
  C           1.77850548075983     -1.15768453314112      1.92996179303015
  C           3.13407689762968     -2.29801210695987     -2.59766286409050
  C           2.60061241128592     -2.98539276613671     -1.59608019830483
  C           1.15161205179265     -2.88806741542268     -1.22952673972891
  O           0.98914033012166     -2.46912805368868      0.12264430967133
  O           4.41934924434064     -2.27664630213833     -3.01567271637859
  H           2.52999153409630     -1.65839573027165     -3.22750370579256
  H           3.19071047808387     -3.61747738382065     -0.95080145293085
  H           0.68065168222949     -3.87547761072189     -1.24526194219495
  H           0.62091277689233     -2.21711653646967     -1.90979645206749
  H           1.49496062932702      0.81329970583895     -1.95287199989972
  F           0.79028428106984     -1.62424274821637      2.72567320060275
  F           2.86150399911793     -1.94035869290442      2.18080364128480
  H           2.02426998233748     -0.13797728759090      2.26331034470727
  C           5.34772488423924     -3.06099559639899     -2.30126837675094
  H           6.31161814070505     -2.89684954183943     -2.77939112584062
  H           5.08867014354689     -4.12272997380109     -2.35283401376105
  H           5.40067967877008     -2.75414260072512     -1.25226563538906
