19
Coordinates from ORCA-job NEB E -37.112483444550
  C           0.96349230719785      0.05499908742216     -0.42183496443180
  C           0.31532832887395      1.13430974313412      0.21407953418214
  C           0.58468437913718     -0.16189877181560     -1.86458785276666
  H           2.03041558638483     -0.05412715913017     -0.25396152629960
  N           0.90266593081982      1.75401367210571      1.29036934622865
  C           0.07216769068553     -1.37703758160477      0.57121782056103
  C          -1.28226028681527     -1.16406313959877      0.33218713390983
  C          -1.80701950434361      0.08709600627174      0.77624490308659
  O          -0.96575592800924      1.28298563342513      0.06260215231199
  I           0.91843670684440     -3.24480588006098      0.01011132125742
  H           0.47347038639391     -1.08873288691658      1.53511095781854
  H          -1.76400957301438     -1.66528520839341     -0.49309331937508
  H          -1.62189302197075      0.33270884607834      1.81997747757569
  H          -2.82303059668894      0.31132034359930      0.47470199259833
  F           0.90731952617179      0.94565033345812     -2.59334133219293
  F           1.28822530392693     -1.16773599730061     -2.42337979796715
  H          -0.48779341036539     -0.34943513366063     -2.01964653757234
  H           0.39068610682437      2.52957909180393      1.68066974977575
  H           1.90487006794703      1.84045900118298      1.30257294129960
