19
Coordinates from ORCA-job NEB_reactant E -37.137124486750
  C           1.71914310229452      0.01411133994699     -0.04767153790336
  C           1.26409306033430     -0.41617052221403      1.14487822281338
  C           2.00214707974312     -0.92683077169077     -1.16309101851349
  H           1.90417311854218      1.05787652248383     -0.21917851167970
  N           0.86109718888486      0.44200047030664      2.15000272692752
  C          -0.20280977357372     -4.61194901578865      2.73405502161112
  C          -0.21674005701768     -3.56943065595597      1.92811487403386
  C           0.23807734160955     -2.20436327986106      2.34769055821479
  O           1.14072916490693     -1.73958936172438      1.36032199026618
  I          -0.87170507355157     -6.51607840087547      2.15952844207846
  H           0.12861535563180     -4.57124907757228      3.75835549063875
  H          -0.53598827052056     -3.64097195733520      0.89905200973975
  H           0.72745679658910     -2.24547723733193      3.33156359660548
  H          -0.63022133326449     -1.53348406249725      2.40784744107094
  F           3.03936782431763     -1.77235381423294     -0.88591685948562
  F           0.94462628204967     -1.74501150235000     -1.43218036961920
  H           2.25616835662334     -0.40530769783629     -2.09823512215510
  H           1.04938354737597      0.13631951132896      3.09321394552106
  H           1.10318628902505      1.40655951319980      1.98924909983516
