19
Coordinates from ORCA-job NEB_product E -37.164671420810
  C           1.69221715506224     -1.62147281505699      1.12087274527639
  C           1.13110815445870     -0.30092259908625      1.69579110586152
  C           1.49495106771355     -1.61325173676291     -0.39806611210616
  H           2.77114154958901     -1.63677471491803      1.30979566023836
  N           1.77735169743354      0.80284029927256      1.26261250714314
  C           1.02035183044975     -2.79854124815002      1.83910835312558
  C          -0.29203343055341     -3.21020677875435      1.27472502259663
  C          -1.42131024224795     -3.09667960972501      1.94927082121319
  O           0.21820699111307     -0.25777307219497      2.47902769091163
  I           2.36574889081987     -4.52428927041606      1.87982603305690
  H           0.90185937386329     -2.52201366671841      2.88794101212022
  H          -0.28051527762618     -3.62507465230051      0.27655015810823
  H          -1.44817148915322     -2.68152133418140      2.94287956259057
  H          -2.36330079368992     -3.39044802298404      1.52060281094278
  F           1.74612948938439     -2.81952959968587     -0.94970494826656
  F           0.22557608407679     -1.29272903270723     -0.74047814580906
  H           2.15532130271740     -0.88665700919676     -0.90096012579657
  H           1.45203704236374      1.69694805298036      1.59347756102175
  H           2.56793060422535      0.78469681058589      0.64472828777147
