27
Coordinates from ORCA-job NEB E -48.155002643280
  C          -0.08805011839666      0.81101016099943     -0.20415996297760
  C          -1.27928216643301      1.05971128283348      0.50268863065310
  C          -0.19272987690466      0.73793692563673     -1.71374327512301
  H           0.79131851166747      1.34602300218183      0.14424661007801
  C          -1.16723108059496      1.71877536317493      1.88009998216288
  C           0.23088554895875     -1.00827150133149      0.47697592150899
  C          -0.94192621367596     -1.64172834537530      0.02157855026275
  C          -2.16988938487617     -1.30150402642584      0.58644859145511
  O          -2.35418161523390      0.43745657225748      0.22722198361348
  O           1.41804681710002     -1.42716988422859     -0.03308310528112
  H           0.27967472961226     -0.75311777925951      1.53585396384827
  H          -0.90570143276624     -2.09283855365718     -0.95825773966205
  H          -2.23715328362529     -1.17595924139365      1.65884753861474
  H          -3.06609077261679     -1.69745468081928      0.13373711702344
  C           1.07860495145390      0.30645685593403     -2.43231656327525
  H          -0.44371060415441      1.75308341457964     -2.04083036883379
  H          -1.02773273280132      0.09572646734394     -1.99157798415486
  H           1.91744793586676      0.93235741228197     -2.13475057907575
  H           0.94075086508108      0.41217739578606     -3.50569899921008
  H           1.32239893053909     -0.72855365625585     -2.21705765003200
  F          -1.20732245265281      3.06072207052871      1.79816963924730
  F          -2.14061442000263      1.34602719076474      2.71482594286881
  F          -0.00016355696055      1.43309296228692      2.50626385958103
  C           2.57707402302868     -0.98429797643184      0.63800020965816
  H           2.74515364967607      0.08533724295993      0.48160359928667
  H           3.40724217842624     -1.54422455150576      0.21235122984389
  H           2.51318157028503     -1.18077412286552      1.71256285791890
