23
Coordinates from ORCA-job NEB_product E -62.081496564500
  C           2.18562461883841     -0.88178236470349     -2.08318523490501
  C           0.77492822871911     -1.46176743364338     -2.05798287341702
  C           2.17852461553525      0.40422526765130     -1.24381832383169
  H           2.90924690261660     -1.56753578222043     -1.62994885023914
  C           0.66827327828625     -2.81013077709898     -1.28508470320539
  C           2.58228373345963     -0.55433273477040     -3.54461565479607
  C           3.87696521177750      0.20785208752019     -3.61748776158231
  C           3.97397849995767      1.42433798512608     -4.11762603703769
  O          -0.17918886917665     -0.94182606986338     -2.54355160857109
  C           2.71948450151413     -1.86690513829068     -4.32465021729603
  H           1.77131859867234      0.02331208052675     -4.00168833839464
  H           4.74111478591858     -0.31381156479127     -3.23101542922631
  H           3.11661105033301      1.95640001475830     -4.49517514557381
  H           4.91710653509263      1.93933002552070     -4.15701756595456
  F           3.41786585166167      0.80134511133773     -0.94043825386843
  F           1.58314156439564      1.42080962725601     -1.86733402541381
  F           1.54059283300128      0.22918052375358     -0.08205716522260
  F          -0.53147318709799     -3.35856607317994     -1.40313889460613
  F           1.57744415045649     -3.69408684852484     -1.70669612850017
  F           0.90682326106016     -2.60747872072682      0.02002752383461
  F           3.65814186154042     -2.66169443270679     -3.76690929301112
  F           1.55969051141132     -2.56667182676516     -4.29170444102940
  H           2.98970146202656     -1.70350295616507     -5.37800157815217
