18
Coordinates from ORCA-job NEB_reactant E -30.245125042570
  C           1.90300555313408      0.34384225127686     -0.30730816568274
  C           2.44635740163158     -0.76606876098683     -0.81789601052984
  C           0.48818603619043      0.74280069849257     -0.54315966004386
  H           2.48456246980330      0.96713062899607      0.35297910193466
  O           3.72917542369254     -1.14663147877341     -0.58194639936369
  C           3.48246444940753     -4.51868720600338     -0.62448355537457
  C           2.43723204874911     -3.75774573618968     -0.88310332697131
  C           2.35790904910386     -2.79783760389897     -2.03253833510120
  O           1.76214505102544     -1.55883140483442     -1.66131181395042
  H           3.49394181480426     -5.20404020848188      0.20512344484727
  H           4.36812074051639     -4.49089819246167     -1.23739169899571
  H           1.55468450456474     -3.78115550061807     -0.25796979880060
  H           1.68347776770859     -3.18859211952595     -2.80187714868898
  H           3.34821491935125     -2.63165043791573     -2.46927468564596
  F          -0.24649599901402      0.66888083245991      0.63179686473355
  H           0.00488524301976      0.07267087217514     -1.25714559136033
  H           0.40531315744545      1.78455853240027     -0.87333090467366
  H           4.13902036886570     -0.53954516611086      0.04333768366737
