16
Coordinates from ORCA-job NEB_product E -35.852504841910
  C           0.72285468470563     -1.19805173007652      0.63254644385736
  C           1.51170317631619     -0.07100737685728      1.26086773367727
  N           1.73154978929585     -2.19194349727519      0.11478571767188
  H           0.17785650329406     -0.82850766996356     -0.24399736247912
  I           0.31741373320487      1.70965208682754      1.51344046911193
  C          -0.24080421683025     -1.75560689849612      1.68401579798677
  C           0.40685935097576     -2.06348507338249      2.99084878154172
  C           0.01073138159378     -1.51120643836960      4.12371550873084
  O           2.63039338387734     -0.09938923827970      1.62722253243634
  I          -1.24707346737370     -3.52821248352939      0.89062849757197
  H          -1.04738478425664     -1.03224268108913      1.82434578293823
  H           1.21624817820372     -2.77838900193356      2.96474595527548
  H           0.49161589663560     -1.74286326242881      5.05726766985858
  H          -0.80422273013711     -0.80571822214441      4.16469861024880
  O           2.26972030427034     -1.87031036087834     -0.90893299347430
  O           1.92573881622456     -3.18661815212344      0.75210085504625
