21
Coordinates from ORCA-job NEB E -41.850323348690
  C          -1.08112340630873     -1.20350298862716      1.60926404549142
  C          -0.45764735010119     -0.04025500015812      1.45593950393342
  C          -0.45059574033650     -2.55587320543175      1.54723044014908
  H          -2.13707851311015     -1.19518151009352      1.82959231179888
  O          -1.12997945358427      1.14870519414403      1.57744818730321
  C           0.21758961256571      1.48286687892732     -1.26845444398265
  C           1.03763601654925      0.44657185846881     -1.24197537784286
  C           1.40613437950041     -0.34763575914897     -0.02574714241228
  O           0.87381046409260      0.13347959166313      1.19455216124937
  C          -0.11568018154316      2.23141803406644     -2.52171532514793
  H          -0.29256620631362      1.84672055675253     -0.39000442468444
  H           1.52138547413653      0.10373453429656     -2.14701542762139
  H           2.49182944074037     -0.30662454125627      0.11342897102333
  H           1.12259639762789     -1.39453868021212     -0.19720426943144
  F          -1.05662850046003     -3.38742440055253      2.45955003995034
  H           0.61241872604217     -2.52714041559123      1.80954810566683
  H          -0.59119567989269     -3.03276198078731      0.56724515133480
  H          -1.19808276045029      1.42239953774751      2.49837758094050
  F           0.60332589553758      1.80437257915158     -3.58909082935012
  F          -1.42287487646322      2.05248689813952     -2.85714085622721
  H           0.04672626177133      3.31818281850154     -2.42382840214089
