20
Coordinates from ORCA-job NEB E -25.086904881730
  C           0.76591021171869     -0.65956544659475     -0.75718451054051
  C          -0.42284989151315     -1.33077532209911     -0.49113992743034
  H           1.64893782722156     -0.95833118426801     -0.21348624725297
  H           0.95975115286017     -0.36135444900187     -1.77836954244431
  C          -1.58641047032440     -1.24768963439925     -1.44129753857318
  C           0.44835016750368      0.97551167976059      0.22094611086511
  C           0.17955395423265      0.49785163538780      1.50199560277763
  C          -0.93770436192295     -0.37986440756979      1.66926069742213
  O          -0.67575987836042     -1.65940094399171      0.75762807866574
  C           1.67617349762524      1.81676470159100     -0.01208450713935
  H          -0.40653331176840      1.30557385534316     -0.36414887065990
  H           1.00898531337757      0.38416817520525      2.18625091919362
  H          -1.88505472614872     -0.01601771673830      1.27176949353985
  H          -1.05716456853381     -0.81405759857234      2.65547135700571
  H          -2.19496014946686     -0.36903526894434     -1.20788796315247
  H          -2.21901225045961     -2.12511660021633     -1.32834008973146
  H          -1.24705117176641     -1.17477731400366     -2.46994509873748
  H           1.91291424347641      1.88233873448944     -1.07114863547825
  H           2.53422223293598      1.40733732573314      0.51532678400783
  H           1.49770217931278      2.82643977888907      0.35638388766262
