20
Coordinates from ORCA-job NEB_reactant E -25.118515945540
  C           1.61631691560860      0.17943031653561      0.14959394986185
  C           1.52207106503348      1.36669312743246     -0.43637064813834
  H           2.12334878985907      0.01115547517111      1.08146855693428
  H           1.17054894758980     -0.68289485063394     -0.30895044007963
  C           0.81062785772155      1.59192991754880     -1.73829018620574
  C           3.02334639995515      4.98267936413291      0.86105858901126
  C           3.22468008374272      3.89997974870811      1.59140771978388
  C           2.73940411808214      2.52474472776693      1.24598884698412
  O           2.03537908080909      2.54074274714355      0.02699457246861
  C           3.51252195749118      6.34529570708608      1.21794687745048
  H           2.46943821984636      4.90257063911343     -0.06318417318212
  H           3.77553540350438      3.94810280396865      2.52179157496290
  H           2.08756415907652      2.15435636013064      2.05409711150232
  H           3.60106225446595      1.84083188696025      1.17599878746195
  H           1.50122898854278      2.01572419008762     -2.46497976559142
  H           0.00014194858647      2.30424128547109     -1.59499510015991
  H           0.40843562150146      0.66070061629616     -2.12257430533470
  H           4.16874350082668      6.72549259782388      0.43555687433429
  H           4.05735193059769      6.33232407613032      2.15881570090844
  H           2.67295275715895      7.03429926312636      1.30592545702748
