19
Coordinates from ORCA-job NEB E -36.607738396800
  C           1.14084803737315      0.31571040638725     -0.59470952353095
  C           0.54241938564739      1.51067500709733     -1.00193161572493
  N           0.94934487382030     -0.87471843887049     -1.38037088611502
  H           2.13990122599979      0.37010933276802     -0.17667034399662
  F           1.20412148082978      2.63553524490824     -0.58286621600101
  C          -0.10564614708792     -0.15248752286617      0.95423456677658
  C          -1.32770442641808     -0.06925481448943      0.29999410733489
  C          -1.78250177571528      1.17545464498109     -0.17940564987230
  O          -0.63288882637672      1.65751423164790     -1.38514802569778
  C           0.40194465375992     -1.46582801896918      1.46770177147257
  H           0.21252914358729      0.70555662197671      1.53825432798035
  H          -1.74697584798084     -0.96532587005392     -0.13349501105893
  H          -1.65940330781906      2.04569914026684      0.45555002897690
  H          -2.68595048736304      1.18610875712920     -0.77177609331378
  O           1.87635178034713     -1.65569869801638     -1.38715558122574
  O          -0.09430296409317     -1.02403810243914     -1.96878722510634
  H           0.08763509753090     -2.29065237050973      0.83297485531385
  H          -0.00584500035059     -1.62922908756453      2.46492978761533
  H           1.48612310430903     -1.47513046338363      1.54867672617291
