19
Coordinates from ORCA-job NEB_reactant E -36.637081501370
  C           1.97075000135835     -0.03547909293958      0.11763534716060
  C           1.15586581173622      0.16284591036180      1.17349846288692
  N           2.38519436109972     -1.31371648963051     -0.31422549090465
  H           2.34527057906718      0.79887947314841     -0.45073514505678
  F           0.83305483456149      1.43312932128049      1.47125486170402
  C          -0.44899389170430     -1.73256027466335      5.09584542750515
  C          -0.55205958564243     -1.61966371036465      3.78220178278163
  C          -0.22304655772670     -0.37561646571434      3.02160244122972
  O           0.64752719362089     -0.74716145917598      1.94156866007986
  C          -0.78913653073851     -2.96097558275846      5.86470110692460
  H          -0.11237721027868     -0.88993098592887      5.68738254300002
  H          -0.87499150884136     -2.44904593671419      3.17090692154638
  H           0.27037370724829      0.36395073047445      3.66168175255723
  H          -1.13167976316716      0.07406591936680      2.59789186419673
  O           3.13145311407066     -1.34339579021442     -1.27314515923262
  O           1.98202955803489     -2.29303228412666      0.27905999940996
  H          -1.11050217730464     -3.76048554196987      5.20344576359417
  H          -1.58392072086726     -2.74808733600623      6.57879648635319
  H           0.07868878547337     -3.29642040442487      6.43083237426387
