20
Coordinates from ORCA-job NEB E -33.185152792360
  C          -2.01920194759392      1.95051695754354     -0.89845012433724
  C          -2.27048671853103      1.11739657193552      0.05457354348818
  C          -1.05095045851860      1.75152026225876     -2.05337102464222
  H          -2.61347454937899      2.84442171120436     -1.02844046975003
  Cl         -2.07640608684652     -0.14843032754938      0.94684733279595
  C           2.37804028054445     -1.58132242785224      2.16830636622537
  C           1.21121003691657     -0.97972947388086      2.23327453562807
  C           0.40539346523785     -1.54282630633138      0.97522716618947
  O          -0.88990227650039     -1.77157882732685      0.76937682117149
  F           3.26287113386007     -1.05282331395131      3.21367059977890
  H           3.00745465859691     -2.25744603196413      1.67145394529930
  H           0.85636209514942     -0.56569987242533      3.14796091708677
  H           0.82043442774980     -2.56148475845294      0.87729846026050
  H           0.92901508998876     -0.88987015294417      0.25132850057981
  C          -0.18811460912998      0.51176062109592     -1.90679581697827
  H          -0.34452958292603      2.59256099682282     -2.09873451417186
  H          -1.76109738872653      1.96054095409985     -2.82635480608130
  H           0.56839576145210      0.75557783494728     -1.14082547721152
  H           0.40298507168082      0.26564631872480     -2.79695834506349
  H          -0.62799840302472     -0.39873073595428     -1.55938761026787
