20
Coordinates from ORCA-job NEB_product E -33.408809287930
  C           2.41029515211273     -0.68488557030165      1.01590379992493
  C           1.06753888323597     -0.51345886483648      1.65996856959723
  C           2.23886534035979     -0.75650662469506     -0.50836828504288
  H           3.03438985686443      0.17690875213382      1.27898313924504
  Cl          1.19089834322332     -0.06526718230141      3.37522980551875
  C           3.10493141964269     -1.92844689419753      1.63238178972088
  C           2.55843295712567     -3.22024123295809      1.10289034278536
  C           1.48649928634556     -3.81109834383647      1.59434193879148
  O          -0.00212540321690     -0.63567700021426      1.16987771091407
  F           4.45592449505636     -1.85302503018149      1.36775754113870
  H           3.01728300536803     -1.88104044224656      2.72578288314551
  H           3.11114523604189     -3.64252481096596      0.27619017426936
  H           0.93573864011033     -3.39662611015354      2.42262021701047
  H           1.11036463574679     -4.73084939138751      1.18278031843134
  C           3.56329772591618     -0.66859694262131     -1.25523657432291
  H           1.59829583439515      0.07426067552562     -0.81196209894861
  H           1.71805191797080     -1.68010587583971     -0.76545181901139
  H           4.08643909492470      0.24981803904334     -0.99882254801649
  H           3.38237178350920     -0.67218727095239     -2.32704452715263
  H           4.21086179526731     -1.50594987901335     -1.01462237799820
