20
Coordinates from ORCA-job NEB_reactant E -33.391268883770
  C           2.32928609056486     -0.25799200805708      0.27729747716124
  C           3.20516596403380     -0.99826539997654      0.94521058462242
  C           1.35692195104943     -0.81855688410027     -0.71454593188327
  H           2.33401821340747      0.81113839773808      0.41304598589174
  Cl          4.29719317926669     -0.23486106112223      2.07565809385655
  C           1.65181790530516     -2.75468493104367      3.00468814819594
  C           2.87910763103560     -3.23634164737644      2.98935312769721
  C           3.81602981377970     -3.12960864511353      1.82532152237898
  O           3.34392181026846     -2.32772914691654      0.76095805646647
  F           0.86396934737539     -2.88504701136478      4.08346986016544
  H           1.15703588448874     -2.22832326923992      2.20238841269454
  H           3.27075917581455     -3.74966421049270      3.85481777476354
  H           3.96449305700419     -4.11811610005181      1.37770974148000
  H           4.78943240301719     -2.76312482287654      2.17793632009106
  C           1.70275117452303     -0.36695039088353     -2.13324941563256
  H           0.35227458906691     -0.46784635864736     -0.46375380412362
  H           1.37337172260694     -1.90719909592034     -0.66286684407526
  H           1.69440295702743      0.71839509091617     -2.20068103879446
  H           0.98028712150376     -0.76375206179697     -2.84210334790424
  H           2.69216000886070     -0.72267044367400     -2.40865472305169
