18
Coordinates from ORCA-job NEB E -36.884782045890
  C           1.16202169522687      0.20867729431941     -0.80361120952783
  C           0.54372836814484      1.43942415845730     -1.03752155688112
  N           0.72135441170599     -0.99050396476776     -1.36835454414848
  H           2.17066855242163      0.18310867459752     -0.41944186722191
  F           1.34894153972450      2.49009263590768     -0.62946338694966
  C          -0.00729372870168     -0.31351599088075      1.15806974627468
  C          -1.26825662355228     -0.12232862797808      0.56521814511208
  C          -1.75583189786507      1.12383193345013      0.29873387239004
  O          -0.61016304482135      1.69365733442094     -1.30918118970975
  N           0.46048329843275     -1.52235060907991      1.47319591336496
  H           0.47517195083164      0.52569521009898      1.64409390278924
  H          -1.75728193443560     -0.98568160905179      0.13583098920092
  H          -1.38358435237253      1.99036090352994      0.82097420467267
  H          -2.69358733612547      1.24110647669907     -0.21440617852950
  O           1.29522217239784     -2.00358530095962     -0.96750107441761
  O          -0.20742216974873     -1.00934790761448     -2.14897670339779
  H           0.10809871357899     -2.32813568580207      0.97306792221815
  H           1.39773038515767     -1.62050492534654      1.82927301476090
