18
Coordinates from ORCA-job NEB_product E -36.902347048200
  C           1.70801445350816     -0.99564789338097      2.06994898594556
  C           1.15781601776111      0.11192042486210      1.20876911021598
  N           1.66141799730019     -2.27583417829821      1.30287738722035
  H           2.76397932164786     -0.79626591812455      2.28526193945306
  F           1.42859418817549      1.30831870709561      1.79045828984998
  C           0.90369211984486     -1.05117922664395      3.40784459299609
  C          -0.58003925456876     -0.94209742896107      3.14973897019240
  C          -1.30730612070693      0.08810919097580      3.53788043739496
  O           0.56359131060485      0.06047371328563      0.19712737454658
  N           1.30832594602536     -2.24782765747811      4.12111455030068
  H           1.23165994394600     -0.18397639498100      3.99351718598619
  H          -1.02412156931637     -1.78502113669941      2.63949149592990
  H          -0.87299867380255      0.93394653408698      4.04664094137534
  H          -2.36679846107259      0.13252428124481      3.35566631523747
  O           2.63321332125306     -2.51481752615135      0.63838894924862
  O           0.67790405237615     -2.95881311881528      1.39414850947288
  H           0.86683326942993     -3.06942255792027      3.71915919471354
  H           1.03542213759419     -2.19238981409677      5.09396576992044
