18
Coordinates from ORCA-job NEB_reactant E -36.904653888810
  C           1.96238628371671     -0.11498803964697      0.18696534261762
  C           1.13723938421198      0.20630791671695      1.20580551196100
  N           2.32639731455743     -1.43874275092122     -0.13014368086348
  H           2.38584936464248      0.65295397393909     -0.43781920145488
  F           0.88346654166779      1.51372143228448      1.39594897884782
  C          -0.27012046416566     -1.62598589765557      5.03722264184106
  C          -0.78828068223411     -1.26711208250999      3.86050693314472
  C          -0.28973558421670     -0.10167692450429      3.08497550495817
  O           0.56078772491878     -0.60921471216945      2.02433294578204
  N          -0.72682489205084     -2.65509872863681      5.81408164280276
  H           0.51304041562869     -1.03495797538634      5.49415485767657
  H          -1.55761530600714     -1.86191863528666      3.39451486653946
  H           0.30084160649399      0.57274794035548      3.71356074271189
  H          -1.10942143037625      0.46047447078016      2.62375023316230
  O           3.07798801149304     -1.58036931084458     -1.07623559842931
  O           1.88454505177977     -2.34915159516393      0.54143601842585
  H          -1.31277830276021     -3.33248217191923      5.35178575446503
  H          -0.08956503729974     -3.04020690943111      6.49015650581137
