19
Coordinates from ORCA-job NEB_reactant E -33.654284393640
  C           1.80430965938043     -0.05862791950749     -0.08413731253709
  C           0.97364747570261     -1.09736615362927     -0.15606756750641
  C           2.24045705514974      0.70630121251695     -1.29067610224168
  H           2.21163726282913      0.24729062546787      0.86389166454266
  Cl          0.54084676766181     -1.93838947601246      1.30453254610218
  C          -0.03520635859124     -3.92499951512338     -3.55111824651239
  C          -0.62954499061824     -3.01039922004437     -2.78576099098103
  C          -0.25222536665756     -2.77072423868474     -1.36400007427694
  O           0.40442569216722     -1.49476753935886     -1.29367036839608
  N          -0.40545949258666     -4.23979987758926     -4.83664741827069
  H           0.74552816796928     -4.55592697631346     -3.14723515803717
  H          -1.40338689120378     -2.37417257705484     -3.18746337868883
  H           0.42662659398920     -3.55214966888182     -1.00550182993808
  H          -1.14003858637438     -2.74413222749680     -0.71925573904645
  F           3.61814720095131      0.75286231928607     -1.35936951026217
  H           1.90824185948754      1.75062772209693     -1.24760158901290
  H           1.88745787940887      0.23025356302599     -2.20872955761094
  H          -0.99055740515468     -3.56192739325732     -5.30022385294853
  H           0.30219347648941     -4.64775265943976     -5.42446551437745
