20
Coordinates from ORCA-job NEB E -36.884858083200
  C          -0.34522867062583      1.76854284692157     -0.54217816870056
  C           0.11235654949320      1.35167777718815      0.76602804247955
  N           0.28188711880205      0.96247803256689     -1.39501541228976
  H          -0.85476349014571      2.67434223915541     -0.80158884132233
  C           0.81593013386073      2.32374074949277      1.64675968801177
  C          -0.43771268957777     -2.40380943653069     -1.03215420164840
  C          -0.11635921823284     -1.74053679021295      0.07734742600205
  C          -1.02143213503704     -0.73065994864186      0.71807340275405
  O          -0.29093281220456      0.28432143024386      1.39912359067939
  C           0.38719226740513     -3.41348999622497     -1.56425068550941
  H          -1.34359232404994     -2.20004177842264     -1.58880725381379
  H           0.80479188605859     -1.94345831986063      0.60301914076236
  H          -1.60968834767453     -1.21926665306427      1.50396089468493
  H          -1.69732614611357     -0.27740412951415     -0.01919241076654
  O           0.12314968511876      0.83753926169249     -2.59181769333645
  O           1.15102473888360      0.27403907536956     -0.72207966828414
  H           0.85075194184613      1.96942739108607      2.67317896199511
  H           0.32559392233698      3.29360828792867      1.58715179421986
  H           1.83348508203664      2.44765777371498      1.27680572916660
  N           1.03087250781998     -4.25870781288825     -1.99436433508430
