20
Coordinates from ORCA-job NEB_product E -36.926302488360
  C           1.34191521200490     -1.77642653247270      0.08801928507352
  C           2.36680620478822     -1.47260596605128      1.21927601092033
  N           1.88582700070192     -1.22245779704279     -1.18544804812487
  H           0.42276872588445     -1.22063661927300      0.30181456008805
  C           2.36824436666528     -0.04627500834996      1.65988540103150
  C           1.04886166176093     -3.27677341285967     -0.05293150296466
  C           0.30287860830687     -3.78699290264697      1.15534433021512
  C          -0.91341249504724     -4.29224957351389      1.09477384866274
  O           3.05208458148227     -2.34091127767042      1.67332944796712
  C           2.26330998254816     -4.06118405185510     -0.21410878711126
  H           0.44604949500854     -3.43579879458297     -0.95681700119764
  H           0.84598762272745     -3.72902616890224      2.08780470239950
  H          -1.41586852936351     -4.65585251074198      1.97384540629734
  H          -1.45672543443721     -4.36989217252741      0.16679249080938
  O           1.92072798882666     -0.01744879467502     -1.26671619977449
  O           2.24578993897551     -1.99830501807200     -2.02834127961905
  H           3.21861703242216      0.13813239313355      2.31055951255093
  H           1.44909412080430      0.16050821111548      2.20674412401299
  H           2.39961120441298      0.61946028687527      0.79849536313188
  N           3.16603271152735     -4.74356428988690     -0.36072166436843
