19
Coordinates from ORCA-job NEB E -35.677310537920
  C           0.78717865886935     -0.40134715111421     -0.47328253649708
  C          -0.43473811711049      0.14860705055679     -0.94788136241850
  N           0.68949056586494     -1.81145813387240     -0.12491389522151
  H           1.66115253473613     -0.23779595063934     -1.10104481359858
  C          -0.46145340057948      0.99466819005528     -2.18076777205907
  C           1.00213084239625      0.36640454299471      1.14121898979640
  C          -0.15068432438343     -0.00343241742729      1.85091654520714
  C          -1.42840120166615      0.35613673482340      1.25744612940091
  O          -1.52079335066218      0.06378171040257     -0.22333262633770
  I           2.88568259581111     -0.24460302957918      1.97012005057643
  H           1.10386636659495      1.39550856928388      0.81606586758391
  H          -0.12545103717394     -0.80146816910988      2.57213331440208
  H          -1.62971154770640      1.43092757406102      1.26651562837572
  H          -2.26206126115437     -0.18801646197240      1.69442318420328
  O           1.48736873011765     -2.55088703544877     -0.66184123814938
  O          -0.20977778521138     -2.13963224894609      0.61704683682168
  H           0.22211959368596      1.83917435052597     -2.07740405170851
  H          -1.46870949459476      1.36545064938546     -2.34660232715940
  H          -0.14720836783377      0.41798122602049     -3.04881592321783
