19
Coordinates from ORCA-job NEB_reactant E -35.713389379170
  C           2.03382963153239      0.12899971730035      0.23782621291326
  C           1.53192771014489      1.38703985634206      0.29057837460142
  N           1.98652824263244     -0.91906751425240      1.17400441226505
  H           2.56951873994900     -0.15894515867202     -0.65437149727114
  C           1.61531919301818      2.23244743275379     -0.94991165534284
  C           2.88129635828059      2.50712399845770      4.22222382848322
  C           2.53710942254806      1.85878631855167      3.12669290725801
  C           1.11774880578251      1.75165060823308      2.65742242408019
  O           0.99086623391016      2.08714797263586      1.28006142373104
  I           4.86198077458153      2.63146701937574      4.90634460744354
  H           2.17377729165022      3.00750734414554      4.86141819940362
  H           3.28039500760252      1.36659996699373      2.51484215583150
  H           0.47902651507411      2.47205083335675      3.17295498309051
  H           0.74741330054754      0.73354903139047      2.84594259968577
  O           2.84189231695027     -1.77924580872175      1.07656225318321
  O           1.07792255316175     -0.95501565095563      1.99413466701587
  H           2.52830531600413      2.82620759012007     -0.92548144003583
  H           0.77344028954976      2.91956320917339     -0.96584701048633
  H           1.61440229707995      1.62523323377159     -1.84829744585008
