19
Coordinates from ORCA-job NEB_product E -35.717261669040
  C           2.67841505287385      1.25134027471959      1.14238369509911
  C           1.33574852992927      1.72236106042698      0.50796640205596
  N           2.83268639106408     -0.17213880401443      0.72059214158067
  H           3.50117271884741      1.79120463907544      0.66220839505295
  C           1.49141239886313      2.21375848376861     -0.89266981937813
  C           2.68886676752288      1.47050275663991      2.64765306718186
  C           1.56872717448410      0.86208943536897      3.41126257780291
  C           0.87715575710102      1.53700604245584      4.31291477005249
  O           0.30536207302624      1.65566128292001      1.11252178423447
  I           4.60574141349206      0.74729553826773      3.45576708217106
  H           2.72214077197774      2.54696835593655      2.82948903750078
  H           1.36993241182354     -0.18200759267222      3.22376140538913
  H           1.07121744634358      2.57647866175712      4.52417194246950
  H           0.07740405911387      1.07684129086238      4.86453892666073
  O           3.03812569124881     -0.33984858797714     -0.45733242749253
  O           2.72901039225883     -1.03272308371616      1.54832961783768
  H           2.09658551759041      3.11873257544759     -0.90256475898883
  H           0.51680560890723      2.42405388014225     -1.32426381892050
  H           2.00898982353194      1.45892379059098     -1.48523002030933
