15
Coordinates from ORCA-job NEB E -30.173858424340
  C           1.14931803748607      0.69955559537747      0.17996819877787
  C           0.42722904703211      0.45835244086968      1.35727899791899
  O           0.84890153525922      1.83332916198787     -0.50283168011056
  H           2.19663918776422      0.39948539616935      0.16091904203947
  I           1.34420256548040     -1.03274573826158      2.64939609530706
  C           0.26585583492574     -0.72029620089117     -0.90714443067806
  C          -1.07738634366893     -0.37083236550940     -0.79220786249282
  C          -1.69067790394399     -0.48514164959285      0.46723197290740
  O          -0.80741192769261      0.62167875796415      1.45641447491619
  Cl          1.04635463108545     -0.50636470317012     -2.45253638878926
  H           0.65382924283285     -1.59070167926892     -0.38995892120575
  H          -1.48426550041446      0.33112340287849     -1.50520488309827
  H          -1.49313844257450     -1.37663868798712      1.05336048940361
  H          -2.69556302464203     -0.10387803970147      0.57480175814988
  H           1.31611306107043      1.84307430913560     -1.34948686304574
