15
Coordinates from ORCA-job NEB_reactant E -30.195409346590
  C           1.85703739215636     -0.07508650312499      0.18346807914530
  C           1.58574355185553     -1.35053292921651     -0.07682793043616
  O           1.49340055588386      0.92084342761326     -0.66947704121636
  H           2.38338358014173      0.19349282495456      1.08804172975170
  I           2.15777115376424     -2.79064848030183      1.40665208337855
  C          -0.79272437425401     -4.33576465213121     -2.58389115379318
  C          -0.57965750893324     -3.04217419448532     -2.41230143607316
  C          -0.22531864765242     -2.45144084161209     -1.08664793248886
  O           1.05264715676579     -1.82918307238710     -1.20421396372004
  Cl         -1.20701158131255     -5.01522887359125     -4.10141260082382
  H          -0.74295551334938     -5.05948162054880     -1.78379243387908
  H          -0.62165066443008     -2.34878527961310     -3.23829618376617
  H          -0.18696093140638     -3.22972694504575     -0.31167768655018
  H          -0.96946894971978     -1.69583795442461     -0.79629402266044
  H           1.86096478049033      1.76075509391474     -0.37782950686809
