15
Coordinates from ORCA-job NEB_product E -30.213273907110
  C           1.60905080021533     -1.24252236796568     -1.21788190545727
  C           1.17106985950782     -1.02902636814047      0.21357425205399
  O           1.29669155071953     -0.13260045354286     -1.98767172572880
  H           2.69623948819836     -1.36203893003776     -1.27394587724067
  I           2.12456851201033     -2.36911474258257      1.61275311983129
  C           0.93376089299486     -2.55494821538408     -1.70873783321241
  C          -0.55403885334223     -2.49580734185337     -1.61100538170535
  C          -1.26106681382460     -3.29279326630908     -0.83101650722230
  O           0.36140265749760     -0.25454988539040      0.58576717833591
  Cl          1.40997562079588     -2.80240176689054     -3.42199985438625
  H           1.33310841097979     -3.40442362314365     -1.15024221202083
  H          -1.03507841753119     -1.75716191839424     -2.23755802878985
  H          -0.79702623738843     -4.04521624860701     -0.21447206494975
  H          -2.33303176496109     -3.22183615555448     -0.77688380031420
  H           0.37487429412804      0.12094128379619     -1.84567935919351
