21
Coordinates from ORCA-job P E -29.209737281380
  C          -1.48095840843421      0.49663504184987     -2.34260190745817
  C          -0.41526215280072     -1.84641292776737     -1.30833379612764
  C          -1.81783278965818     -1.85222815151577     -1.82409696224426
  C          -2.32120339831564     -0.74750668136203     -2.35000193614172
  C          -0.89084095127886      0.64915425538106     -0.92792749200646
  C          -0.09774975557664     -0.58296660019567     -0.47057949717728
  H          -2.37614656637249     -2.77452766419422     -1.77692724558985
  H          -3.31883407022469     -0.68369750045802     -2.75596672164333
  O          -2.18188617878986      1.64809304432577     -2.74549944615530
  H          -0.21510903572215     -2.74483412803648     -0.72365165684360
  H          -0.65955084921234      0.40084372765569     -3.06296139259465
  H           0.27034073997080     -1.83527271149043     -2.16246946633161
  H          -1.71595866758100      0.83327639861764     -0.23566473633419
  H          -0.34120699733858     -0.79435971724637      0.58468446626581
  H          -0.22039194543810      1.50820150828130     -0.90375025062689
  O           1.27386102254117     -0.23834283139780     -0.55354971233325
  H          -2.92046507420583      1.78608761956892     -2.14126148151665
  C           2.14806136363875     -1.13604466704393      0.07869675172885
  H           3.13235750668693     -0.67189589421183      0.05384145229698
  H           2.19467637312064     -2.10182294885775     -0.43679736263396
  H           1.85332983499101     -1.30664917190258      1.12218839346718
