21
Coordinates from ORCA-job R E -29.135769463650
  C          -1.13609491749423     -0.30494660286813     -2.85770468904817
  C          -0.70353678548630     -3.28762846214266     -2.55744153159538
  C          -1.52726340893703     -2.52787547508087     -1.84087269193646
  C          -1.65270014195850     -1.08667371126478     -1.90536918547659
  C          -0.93102588202181      1.88540724835901      0.27928189930849
  C          -0.19314586921888      0.78697898976478      0.35277361836194
  H          -2.17073404751748     -3.00405893788965     -1.11089107763887
  H          -2.22292739553945     -0.62196660044187     -1.10946064507326
  O          -1.23661511938742      1.03532536715091     -2.91262384677284
  H          -0.68329326666698     -4.35708126401557     -2.43951310481933
  H          -0.59136592582460     -0.69551688969485     -3.70446296681172
  H          -0.02483327742225     -2.87561547951798     -3.28387407398746
  H          -1.82389783308361      1.98923464827791      0.86579891304639
  H          -0.47432514592061     -0.04864020851232      0.98712867942659
  H          -0.63247352426313      2.71309173898973     -0.33880781685388
  O           0.95141255412590      0.63525013873990     -0.35394567553616
  H          -1.62064547268943      1.37394424498838     -2.09023179594159
  C           1.57029024782751     -0.62612121261219     -0.26400445324019
  H           1.82768641683712     -0.87042897960690      0.77224075259443
  H           2.48103717791070     -0.56121840856527     -0.85595940718258
  H           0.92666161673047     -1.41288014405760     -0.67228090082333
