21
Coordinates from ORCA-job TS E -29.116578367080
  C          -1.11905336469576      0.95491305127644     -1.39691303244510
  C           0.08212252600764     -1.47008271030789     -0.47176717710081
  C          -1.25879875220673     -1.34474012472878     -0.65025080765422
  C          -1.85619201587532     -0.17575413520009     -1.14618866023751
  C          -0.36999792360252      1.30021892066067      0.61152156204909
  C           0.47797657458675      0.30287466505566      1.00385712097917
  H          -1.91669938672809     -2.10506846682501     -0.25001113874354
  H          -2.93520926077790     -0.08912048114661     -1.09781120069920
  O          -1.68903456407296      2.13205770505817     -1.76520744073036
  H           0.46956042368881     -2.36149664300585     -0.00341561812357
  H          -0.09707078849759      0.90781663670747     -1.73717055063828
  H           0.78488997473019     -0.90604027054563     -1.05621189202933
  H          -1.34664063590256      1.34922328860105      1.05620516333272
  H           0.19545985471324     -0.44010854026531      1.73652181315714
  H           0.05059636433338      2.21770138432783      0.24264202471387
  O           1.81785685453982      0.45338048036894      0.76847724441918
  H          -2.63381168671464      2.11193254721474     -1.56492376438754
  C           2.65926139117250     -0.52386778488408      1.32430027353679
  H           3.67961811652513     -0.19306010589742      1.13782560010049
  H           2.50418980878079     -1.50039383690676      0.85441965731301
  H           2.50097648999581     -0.62038557955755      2.40410082318799
