17
Coordinates from ORCA-job NEB E -26.766019933560
  C           0.20842506425352     -0.94614510461140      0.44986696613429
  C           1.12826636824760     -1.17959579677154     -0.73966390767530
  H          -0.72443663179222     -1.48468024063669      0.27828784585406
  H           0.67191857315020     -1.31207224096599      1.36840388729734
  N           2.43588259209470     -0.94009547385285     -0.47697458809689
  C          -0.10025392381995      0.56445743565035      0.58029064230099
  C          -0.87852841656718      1.04663256229704     -0.62109906842980
  C          -2.19386127232946      1.13221167252010     -0.65986358091463
  O           0.73500073601590     -1.50505470337484     -1.83351178308697
  C          -0.82753708202079      0.78129115297491      1.81090716390914
  H           0.84428789067172      1.12034956198728      0.65225740709464
  H          -0.27626285868196      1.27197831119737     -1.48926187078063
  H          -2.71055421385539      1.44849576476983     -1.54905973548793
  H          -2.80721051799376      0.90244929981077      0.19659416833260
  H           3.10930091291258     -1.08882115746446     -1.21034699907839
  H           2.77396770766295     -0.74281252871443      0.44780985917226
  N          -1.38840492794843      0.93141148518455      2.79536359345522
