17
Coordinates from ORCA-job P E -22.441349143190
  C          -1.33912640454967      0.44186367738893     -2.35282002264689
  C          -0.02533406799801     -1.56615426049508     -1.05748123843342
  C          -1.39346209046577     -1.85263939800540     -1.58819400331509
  C          -2.04140719240647     -0.88213338637713     -2.21140987335824
  C          -0.76733078863809      0.88716487026557     -0.98613588668895
  C          -0.04475129344852     -0.25610467842044     -0.25332496338725
  H          -1.82532510911046     -2.82945247482757     -1.43902899555478
  H          -3.03721610925579     -0.98691189978004     -2.61172909296971
  C          -2.22249989600730      1.45641818877842     -2.87095998148973
  H           0.33383618852894     -2.37930925039903     -0.42709971564138
  H          -0.50610800907297      0.32956099582457     -3.06199648328456
  H           0.67216587887975     -1.46017461187438     -1.89510836213864
  H          -1.59756643324645      1.24900959818363     -0.37664496126190
  H          -0.54819083438842     -0.44973990553237      0.69501456993850
  H          -0.09151469835242      1.72844713248738     -1.14883948252477
  H           0.98164722637341      0.03423860719004     -0.02496206705375
  N          -2.93148636684176      2.25477679559289     -3.27985944018945
