17
Coordinates from ORCA-job R E -22.347127533910
  C          -1.56618110322729      0.01788452064318     -2.76004916724430
  C          -0.07856387502401     -2.37293498356593     -1.69542094799607
  C          -1.38219133249784     -2.31781877160324     -1.95554816815208
  C          -2.11508351314139     -1.12459346778928     -2.31925094614173
  C          -0.42631262345407      1.70600593615189     -0.17396080508053
  C          -0.02651041736179      0.58482905482829      0.38911586128283
  H          -1.97927342633085     -3.21730524265351     -1.87680476685613
  H          -3.19313918407390     -1.18438741233739     -2.23497716463920
  C          -2.34400099091067      1.14185167961836     -3.07694582521575
  H           0.40400680065533     -3.29524855905342     -1.42303184463264
  H          -0.49982914350892      0.13319116579422     -2.89437834556843
  H           0.54914989265958     -1.49839184541243     -1.72101059148732
  H          -1.46883899634413      1.93231363795637     -0.32671855244930
  H          -0.72322511330132     -0.16463873419464      0.72814830591104
  H           0.27144850725581      2.45634991526705     -0.50927364021142
  H           1.01713333580611      0.36424031980724      0.54652774747555
  N          -2.98690881720065      2.05969278654325     -3.32681114899448
