17
Coordinates from ORCA-job TS E -22.336890616080
  C          -0.50341410869087      0.55945328524847     -1.23115041595874
  C           0.96055459722044     -1.51956830478276      0.08820461764840
  C          -0.36550445949737     -1.63426920600546     -0.19517263148139
  C          -1.08943751858673     -0.61022625589160     -0.83608673865687
  C           0.28068032789056      1.25817530109028      0.94095172340098
  C           0.91235076596943      0.20673160674109      1.50812065037902
  H          -0.93727235718534     -2.43077681246330      0.26064008189004
  H          -2.16858998628812     -0.68238547347161     -0.85409017182556
  C          -1.27312009785581      1.63893465583534     -1.69094699657537
  H           1.45137252396415     -2.27516710066514      0.67974936152972
  H           0.55401026727170      0.62803996894667     -1.43238668843446
  H           1.61344014080595     -0.92034822658516     -0.52111442050140
  H          -0.75299845546892      1.46908651489238      1.15239601951351
  H           0.40134875126869     -0.40841761104986      2.22913873549446
  H           0.82732254980775      2.03062301879214      0.42739429239535
  H           1.98816015729380      0.15559868444114      1.51922760486897
  N          -1.89890309791929      2.53451595492737     -2.04487502368665
