15
Coordinates from ORCA-job NEB E -31.511980417940
  C           0.71650290289259      0.62144817795984      0.32945490110210
  C          -0.09960457948721      0.23241436615180      1.52179161522595
  F           1.92060481098563     -0.06123972841221      0.32123927814144
  H           0.98940242765756      1.68218864488870      0.30339070546289
  C           0.27940227347297      0.43999491195630      2.82252905966117
  C           0.51420775643829     -0.51364571296593     -1.93985819178071
  C          -0.19508741197680      0.21568419837379     -0.87203577250387
  C          -1.28871334701963     -0.64857626463261     -0.19810152908725
  O          -1.22918111192192     -0.43369962150594      1.19436127548514
  Cl          0.78413150786262      0.21204472868271     -3.43509713878118
  H           1.03114957616426     -1.43489919132809     -1.74214602298644
  H          -0.63924651267267      1.12791131952650     -1.27660093325249
  H          -1.12358734572148     -1.71613437734308     -0.39304839530914
  H          -2.28969900954188     -0.38011841811464     -0.54163755973419
  N           0.62971806286767      0.65662696676285      3.90575870835658
