15
Coordinates from ORCA-job NEB_product E -31.554667433110
  C           2.38726205276088     -1.21251256659780     -1.05261412583933
  C           2.00918336220108     -1.95995307730201      0.23101316161074
  F           3.71843106910802     -1.39539548935435     -1.30130987008775
  H           2.21805625425609     -0.13306131962700     -0.94554201710214
  C           0.83473416847949     -1.38460661626581      0.86888170351466
  C           1.55582854397042     -1.79625783634007     -2.20613191189939
  C           0.09850071884704     -1.84436077162443     -1.88437399531587
  C          -0.60951894494847     -2.95939475917567     -1.88334441591452
  O           2.59561400153163     -2.91074246330499      0.66078453715193
  Cl          1.78970181061426     -0.76709341017404     -3.66608908811186
  H           1.95118974351155     -2.78534121601952     -2.45336566462911
  H          -0.36208277851807     -0.88817799752679     -1.67884854043010
  H          -0.16619896224554     -3.91667226546098     -2.10299827769178
  H          -1.66081725577753     -2.95614415993403     -1.65662023357970
  N          -0.06208378379084     -0.90848605129250      1.39605873832422
