15
Coordinates from ORCA-job NEB_reactant E -31.560480409130
  C           1.45557541353030     -0.21239308535551     -0.01323629273076
  C           1.29787967702843     -1.51567922454293      0.25658899066875
  F           0.97316352853791      0.41364207683468     -1.10146746263707
  H           2.00633996447691      0.44942899374482      0.63573040125896
  C           1.90096566590968     -1.96171367517688      1.47189484977160
  C           1.41410482050284     -3.17066252271995     -3.54205782921559
  C           1.12086653425587     -2.15275623415801     -2.75011185082374
  C           0.07670574636643     -2.25354302389960     -1.67554963924695
  O           0.64860167690187     -2.50378361947545     -0.39571156115878
  Cl          2.61811993648735     -3.08713720890872     -4.75832666168417
  H           0.91110244139788     -4.12484838001550     -3.49087618553487
  H           1.65401258063125     -1.21758944038926     -2.83371280989124
  H          -0.56398322309487     -3.12160437783170     -1.84613450606917
  H          -0.53853041532446     -1.34815095969805     -1.65212767476001
  N           2.38337565239259     -2.31690931840793      2.44639823205303
