15
Coordinates from ORCA-job NEB E -31.096193684260
  C           1.09435245304606      0.76857749957625     -0.59444538162074
  C           0.67048443014185      0.93344651081441      0.72508666220921
  F           0.50123518175264      1.51484783370037     -1.54575545861257
  H           2.14534534809820      0.61172156071557     -0.80838771098472
  O           1.52455822127719      0.47474491109957      1.68402379151518
  C           0.17171698428389     -0.98306599713681     -0.94063948662718
  C          -1.14674286692516     -0.63338744120117     -0.68459639827260
  C          -1.48102504749580     -0.26529708798739      0.64343349105973
  O          -0.56963263551431      1.09068485375875      1.01708261144714
  Cl          0.64040921521733     -1.37483645103432     -2.56331037362469
  H           0.73829511922684     -1.55726466613151     -0.21547360979614
  H          -1.74211312141204     -0.24539206351796     -1.49658568741334
  H          -1.13455825711996     -0.92575199338876      1.43313160890963
  H          -2.48273880311384      0.10739146141036      0.80802726628134
  H           1.07041377853710      0.48358106932264      2.53840867552973
