15
Coordinates from ORCA-job NEB_product E -31.137494944190
  C           1.20916964842724     -1.49061007021749     -1.06189123827953
  C           0.88483059980228     -0.73852465771195      0.24360586383964
  F           0.61622426249918     -0.84260092440963     -2.10845718355985
  H           2.28980357526028     -1.48654983596276     -1.26591728752157
  O           1.72525312877532     -1.01707095873740      1.25178849337490
  C           0.67310457803460     -2.92484557058812     -0.94239420674396
  C          -0.81766305755670     -2.96643795145213     -0.97733638958039
  C          -1.54529389880612     -3.57674099893470     -0.06089073488172
  O          -0.04081557835330     -0.00530144815790      0.37474275694782
  Cl          1.32835012836173     -3.90850605064011     -2.31249082648812
  H           1.06157382297079     -3.39042831076793     -0.03213842865089
  H          -1.27042800317541     -2.46080699193140     -1.81722073717408
  H          -1.10054022231257     -4.08426258903808      0.77968535393308
  H          -2.61911978265302     -3.58832481410554     -0.11505849554130
  H           2.46575079872572     -1.58858882734485      1.00777306032599
