15
Coordinates from ORCA-job NEB_reactant E -31.119335400730
  C           2.10982406797455     -0.08727475852233      0.12677779344104
  C           1.35655328965317     -1.15160492673989      0.41161694769106
  F           2.25560826457247      0.35919287496591     -1.14143265508029
  H           2.65486686285243      0.49617126255065      0.84881564353280
  O           1.20058769137813     -1.60899483335259      1.68597444250759
  C          -0.71303128038961     -4.81142170543793     -1.62846680236683
  C          -0.73188858889380     -3.52219913651000     -1.33776132044207
  C          -0.07895404028884     -2.94889713788391     -0.12110566984115
  O           0.70407766676393     -1.83848629013190     -0.53983394332733
  Cl         -1.49308760753131     -5.46224838280327     -3.00987391922577
  H          -0.22716004322278     -5.55541852563895     -1.01524890711706
  H          -1.21726629722997     -2.80640926346994     -1.98348864477311
  H           0.55126101966203     -3.69249384232460      0.37977631770992
  H          -0.84532013960140     -2.60815812339490      0.58948238049374
  H           1.70182913430099     -1.06255721130635      2.30036833679747
