20
Coordinates from ORCA-job NEB E -50.537093603430
  C           1.09490199551797      0.38781703327318      0.36434780780523
  C           0.64699800012603      0.16971421381859      1.68672809340018
  C           1.03705894566079      1.81631100140159     -0.11225368319341
  H           2.06009912082926     -0.05637778762505      0.12417713251118
  Cl          1.40149611472590     -1.17794343744644      2.53083454918451
  C          -0.18272796713187     -0.84290896321086     -0.46379500917154
  C          -1.43548202129755     -0.40861160205912     -0.00463523910388
  C          -1.68697608249418     -0.42827554534570      1.39062735747223
  O          -0.51020459532187      0.52299823956848      2.05870967665196
  C          -0.00163067435107     -1.04712575343154     -1.94079332232841
  H           0.25050317208481     -1.69441162834486      0.06475205355194
  H          -2.05880808274717      0.20296471555105     -0.63888351586265
  H          -1.45987439256571     -1.34870822762925      1.92242476664386
  H          -2.60127067377990      0.04666606003066      1.72216070792766
  Br         -0.70776399840344      2.64508508687563     -0.14289349059462
  Br          2.13875005544209      2.89285872961283      1.15486890284727
  Br          1.88269729501320      2.07399439728212     -1.84405043566786
  Br         -0.95634072827757     -2.73490923999121     -2.37693739897998
  Br         -0.77548538048322      0.33008014895115     -3.06614178843498
  Br          1.86405989745349     -1.34921744128125     -2.42924716465868
