20
Coordinates from ORCA-job NEB_reactant E -50.579837318350
  C           1.51875595420470      0.17647058038102      0.02155824488907
  C           0.89677790261500     -1.00516567962187     -0.11120152911883
  C           1.83155453234399      0.96938011066399     -1.18042390614732
  H           1.79501517406380      0.55879893903196      0.98837868705760
  Cl          0.50833930860487     -1.97319834486784      1.26023946394094
  C          -0.08354719105847     -3.88039483234092     -3.70023477323637
  C          -0.33366530445097     -2.79214734182782     -2.99117182738082
  C          -0.07184272530426     -2.68567598841791     -1.52430154709602
  O           0.57307529990436     -1.43680395317705     -1.32481290638417
  C          -0.33671809866285     -4.05171615989978     -5.14759558912639
  H           0.32788410632952     -4.76820994211364     -3.23415921191847
  H          -0.73225386809797     -1.89198417930674     -3.43885590231147
  H           0.56272888407164     -3.50322239682054     -1.16429699003278
  H          -1.02344091227756     -2.70229759284095     -0.97490883751091
  Br          2.72411359113828      2.62494774349800     -0.72384848085506
  Br          2.99256033312769     -0.02828188514043     -2.42825963984339
  Br          0.20348218721786      1.41711381628492     -2.20015754694499
  Br         -1.64825207784118     -5.50970290067469     -5.39319791021966
  Br         -1.01872315713375     -2.47890718379047     -6.05107893587919
  Br          1.33735606120531     -4.59130280901923     -6.03567086188178
