20
Coordinates from ORCA-job NEB_product E -50.578798905260
  C           1.32177118157369     -1.50522432474964     -1.91324318158618
  C           0.93735366157272     -1.52267664454444     -0.43610698211905
  C           1.37628864936267     -0.05086053928557     -2.37425882125998
  H           2.34037045326731     -1.90265732947865     -2.01513316431337
  Cl          1.75799290571877     -2.80579350588916      0.43598153977456
  C           0.34914028812541     -2.56263006775134     -2.53341343981511
  C          -1.11083200130454     -2.29566141208409     -2.26484634017180
  C          -1.77591769932481     -2.88224013429038     -1.28738108467109
  O           0.15080562129435     -0.81977208817123      0.09720217488609
  C           0.53988981398727     -2.92803021848881     -4.00491685132849
  H           0.61986672451262     -3.47669773245564     -1.98173861230438
  H          -1.61773021427351     -1.61457778671989     -2.93147687732032
  H          -1.31290372710900     -3.57987948903026     -0.60850412376932
  H          -2.81895720086768     -2.67783196757833     -1.12723755879307
  Br         -0.32923886650854      0.84363293393158     -2.50481140008733
  Br          2.46340073910698      0.93741620378695     -1.04090369723336
  Br          2.35449358675147      0.17343349262704     -4.04567735846330
  Br         -0.45041972608545     -4.60475072848622     -4.30613036384804
  Br         -0.18169386090599     -1.64257202919498     -5.27491684370311
  Br          2.41321967110626     -3.30292663214694     -4.42858701387334
