20
Coordinates from ORCA-job NEB E -41.402126042910
  C           0.22382614820599      0.96049310343047      0.10907304612143
  C           0.95040788831350     -0.21386227991185     -0.34183710467155
  C          -0.00427680455363      1.99408439747854     -0.73817018366463
  H           0.02242418754972      1.07337330213179      1.16261525621517
  C           2.33281538541635     -0.07548890753047     -0.70576363737601
  C          -2.17928754960341     -0.82444075370380      1.78798215627495
  C          -1.35391468791464     -1.64587278627430      1.16527233831279
  C          -1.02355845016357     -1.51892769144962     -0.28851124988969
  O           0.38677098235563     -1.38013048253500     -0.49407699280857
  F          -2.46290472472714     -0.96908443077744      3.08282332973284
  H          -2.70576261923292      0.00822479078423      1.34212798792684
  H          -0.87451090242079     -2.44956858943428      1.70451885293227
  H          -1.54341067233981     -0.66437903029518     -0.73246000686832
  H          -1.28658449664786     -2.43888967162865     -0.81842949107116
  Cl         -0.20165059899790      1.69087875240340     -2.42418739796085
  Cl         -0.72246142541705      3.43447773403118     -0.18420723008714
  Cl          2.32908011319646      2.87566121857450     -1.28945642760126
  H           2.72529994365606     -0.93819927629017     -1.23448977591638
  H           2.94759079365121      0.16395868879765      0.16167106079533
  H           2.44010748967381      0.91769191219902     -1.26449453039604
