20
Coordinates from ORCA-job NEB_reactant E -41.470852135000
  C           1.35611901012556     -0.54860742409529     -0.11983321862761
  C           1.97832706395975     -1.68432481059832      0.23588781726075
  C           2.00117318738817      0.58903052162958     -0.80621814101270
  H           0.31304448512229     -0.39430700284559      0.09970576167814
  C           3.41908953774705     -1.99415279426615     -0.01850486139707
  C          -0.93768033114988     -4.01004459733330      3.02203458665196
  C          -0.38457446353936     -3.93287271715096      1.82735173378687
  C          -0.00371871742008     -2.63927385260728      1.18304023527620
  O           1.37698933416734     -2.71032790353431      0.86526658791477
  F          -1.27947924315087     -5.18408462799942      3.56477141258453
  H          -1.18893487374539     -3.17836134348202      3.66516252820638
  H          -0.16475153359225     -4.82962664588938      1.26849551023970
  H          -0.19575791856110     -1.79755330147151      1.85986271109643
  H          -0.58595798666359     -2.49875825226111      0.26082307571513
  Cl          2.79800060962979      0.11867826079576     -2.33636903098361
  Cl          0.79373129620158      1.83121824389487     -1.19946074808002
  Cl          3.25402998343258      1.38004990378766      0.22040501529495
  H           3.70927882410114     -2.83701270824746      0.60251810321643
  H           4.04758752266640     -1.13797646872360      0.20521466242846
  H           3.56428421328086     -2.26329247960216     -1.06265374124968
