19
Coordinates from ORCA-job NEB E -38.510619635870
  C          -0.12494013906759     -1.00160936356306     -0.90093339208398
  C          -1.14655226870298     -0.12452951735137     -1.27635573477036
  O          -0.45427647789086     -2.01533263938092     -0.05260084865275
  H           0.64593769722834     -1.20321796900940     -1.64033837284880
  O          -0.90982023443488      0.63546646123104     -2.38935699321696
  C           0.75147523986589      0.37921378693847      0.32649297854781
  C          -0.26836595584506      0.59142964784380      1.24291938663121
  C          -1.44662027740328      1.22328893330961      0.76654782708932
  O          -2.05206130628202      0.25659251254584     -0.44942100160926
  C           2.02895636828268     -0.28659467231163      0.76153724024759
  H           0.94092366165782      1.12106862897387     -0.44198860333572
  H          -0.34270018512418     -0.06938471922610      2.09296831275149
  H          -1.30466400714515      2.14116091621273      0.20235595241322
  H          -2.28786667888217      1.26886860541228      1.44444365616316
  H           0.33597241992729     -2.50008969798533      0.21548452596214
  H          -1.61059683601932      1.29759436654113     -2.46346125611563
  F           1.81490688522090     -1.39191872884967      1.52023966108357
  F           2.75605452458056     -0.71345689353919     -0.30393106096362
  H           2.67423757003401      0.39145034220788      1.34539772270757
