19
Coordinates from ORCA-job NEB_reactant E -38.534627839170
  C           1.96376100645368     -0.09416671113850      0.46185820061579
  C           1.53393151601035      1.16145440052141      0.35530222883579
  O           2.18219150390514     -0.76602771567140      1.65263320763535
  H           2.11355437989765     -0.64383090285991     -0.45458942198630
  O           1.28702006213193      1.66926671584704     -0.88334367721753
  C           3.85718655350469      1.01706211718428      3.51993007549117
  C           3.17482812389940      1.84973967098559      2.75369289089044
  C           1.68105859389063      1.84620725889463      2.64122086147617
  O           1.24948475194561      2.09253146563273      1.31802317182149
  C           5.35103188507266      1.00779787556409      3.62148551448723
  H           3.37215917334488      0.25185645029294      4.10708332268169
  H           3.68344377304275      2.59112446658407      2.15173797046919
  H           1.26697257904996      2.68171796790585      3.21701106430374
  H           1.26767155588473      0.90535576726959      3.01529574698628
  H           2.88279242348421     -1.41172062641376      1.51491710047883
  H           0.95426556293359      2.56810277673482     -0.76223152425097
  F           5.84495161610889     -0.19208634909915      3.20339353129569
  F           5.93194060837347      1.94540231137821      2.83809428684358
  H           5.71425433106576      1.16141306038749      4.65248544914238
