19
Coordinates from ORCA-job NEB_product E -38.562466584710
  C           3.16693976875407      0.98525038970543      0.82770244030629
  C           1.81691789532900      1.58208246797747      0.42463686313547
  O           3.13361037990645     -0.36651363118451      0.46619863068411
  H           3.95730682774654      1.52746764324720      0.28571329473062
  O           1.97840589660468      2.62972113965655     -0.38511459577228
  C           3.34088604396687      1.22439579654680      2.35179755410315
  C           2.37331564921803      0.39331026798526      3.14540353861861
  C           1.69601866947143      0.85137741695508      4.17975150710146
  O           0.74902075620266      1.19342614578070      0.79647439649754
  C           4.77759861637033      0.92385654995994      2.78809529313807
  H           3.18499386351761      2.28978979808482      2.55313872378033
  H           2.25894171380248     -0.62496286823924      2.80464188590437
  H           1.78909716741729      1.87038781478936      4.51950730460924
  H           1.01095290501122      0.22659880614572      4.72438304181324
  H           3.95731147755863     -0.79196709972012      0.73595705305181
  H           1.11809376605095      2.99862063193936     -0.64592534460596
  F           5.16256995190887     -0.33332900660387      2.45082235902716
  F           5.65335535348369      1.75228555093469      2.16804888316854
  H           4.91736329767919      1.03350218603935      3.87396717070823
