19
Coordinates from ORCA-job P E -37.270668249600
  C          -1.18074285731902      0.58794786685021     -2.35669856420881
  C          -0.43698876295550     -1.67472741514459     -0.54945903142740
  C          -1.15243174808951     -1.85131398009553     -1.85126146935242
  C          -1.48583218958834     -0.85529440390398     -2.65293505496637
  C          -0.81411681359734      0.78311701466820     -0.88102626908217
  C           0.16936267977269     -0.28455460522608     -0.42728906496022
  H          -1.39477276106473     -2.86831359168163     -2.12198752283305
  H          -1.98366580246911     -1.04772117817036     -3.59077762746657
  C          -2.36821765264513      1.46361718498702     -2.74807304116645
  H          -1.14455000710576     -1.82568495127156      0.27262444438168
  H          -0.33381261969842      0.90370620607554     -2.97973112777491
  H           0.34157583567834     -2.43413955814662     -0.45038363553990
  H          -1.71338832696413      0.69569596055279     -0.26794424129658
  H           0.49817168345842     -0.09084078896045      0.59637101633685
  H          -0.38627199539510      1.77447061655725     -0.73149451694273
  Cl          1.65609198095132     -0.19332011520904     -1.43021988359093
  Cl         -3.84329334562908      0.93398648200971     -1.90681231761764
  Cl         -2.07653899845904      3.17107948546784     -2.34278314767327
  Cl         -2.66923829888054      1.37623977064129     -4.50055894481909
