19
Coordinates from ORCA-job R E -37.173509106270
  C          -1.26356474267607     -0.12070597588207     -2.91413414097135
  C           0.13568690903657     -2.72498675640040     -2.32236432995852
  C          -1.03568245048295     -2.33507578193095     -1.82942177309206
  C          -1.69745366520893     -1.06984713063441     -2.08363727145965
  C          -1.10400466600489      2.01318468448036      0.50537322159958
  C          -0.65939369062134      0.77418744943341      0.50891932476594
  H          -1.57672790414889     -3.00063906024971     -1.17012607298757
  H          -2.61592001741814     -0.91212095549371     -1.53574186181402
  C          -1.94183794795812      1.16771665826030     -3.17522710111288
  H           0.54605757889983     -3.68756854517604     -2.07301614365556
  H          -0.35896530467811     -0.24543872411342     -3.48998752327145
  H           0.72700736945368     -2.10813935578056     -2.97564616321885
  H          -2.04110203890331      2.25890436620731      0.97345268202770
  H          -1.17338406709220     -0.05495266966736      0.96932531055908
  H          -0.56348056242298      2.81416748162352      0.03302648405244
  Cl          0.82699483522166      0.31943047549509     -0.22800179228602
  Cl         -3.29408776816491      1.50803633079135     -2.08940828111824
  Cl         -0.77137241539281      2.50923670500237     -3.03706635924881
  Cl         -2.57291945143807      1.17274080403495     -4.86081820880975
