19
Coordinates from ORCA-job TS E -37.157218530460
  C          -0.32067563503461      0.39735079825534     -0.92235207512992
  C           1.08378790645554     -1.79552982915134      0.24662746291384
  C          -0.23510253906917     -1.86812199430034     -0.06264897588006
  C          -0.92609676009527     -0.80369289339439     -0.67300792589665
  C           0.20344555182019      0.94131118283332      1.19008333663273
  C           1.06770065463603      0.02728538117274      1.69448641120313
  H          -0.82977758940395     -2.68546015375081      0.32031013775868
  H          -2.00187331278465     -0.87256608041119     -0.74593387967407
  C          -1.09620186000002      1.53458318352076     -1.48770858942550
  H           1.55031481251173     -2.57555306268116      0.82554834948710
  H           0.73700010937429      0.45137408952867     -1.12458099961976
  H           1.75774739230580     -1.16719849926740     -0.30499331104314
  H          -0.83093052596535      0.89703362081426      1.47968667624924
  H           0.78939882888657     -0.72851707179587      2.40783060931953
  H           0.56551009426361      1.87722067475164      0.80452897353245
  Cl          2.77574949594273      0.33000577272872      1.64148103324835
  Cl         -2.61189082923066      1.81744168651335     -0.60565889833427
  Cl         -0.15531403035335      3.04176897535041     -1.48021245893287
  Cl         -1.52279176425948      1.18126421928331     -3.20348587640879
