20
Coordinates from ORCA-job NEB E -32.611377229930
  C           0.71273257430260     -0.45278132738769      0.60204151306882
  C          -0.44553279765099     -0.99910232502275      0.02253867011510
  C           0.57609878665396      0.19110426956050      1.96389654672970
  H           1.62059526116187     -1.04446783875474      0.51935485998237
  C          -0.36519059734651     -2.08199035269212     -1.00994300346867
  C           0.92768216130327      1.01282108373488     -0.58781154956502
  C          -0.25537289372299      1.73668172234767     -0.45250038602545
  C          -1.46080872465201      1.03486183086849     -0.78974221496032
  O          -1.54355791816555     -0.27855528355033      0.07972942647565
  I           2.76400907660415      2.00220941744203     -0.13573772547092
  H           1.07613018243231      0.43723834455105     -1.49335978918142
  H          -0.30999126364940      2.53419492123054      0.27228998773813
  H          -1.49157238413822      0.62548101121243     -1.80007456426076
  H          -2.38097084256303      1.55393390646666     -0.54368788335808
  F           0.70832746068517     -0.78587255747532      2.92193473551221
  H          -0.41563448161677      0.63361614628122      2.09568742003594
  H           1.36091082918669      0.92530718699314      2.16955076256152
  H          -0.37728635207574     -1.64223875310178     -2.01215203700318
  H          -1.23690896961594     -2.72783528488837     -0.93018512078471
  H           0.53634089286713     -2.67460611781553     -0.89182964814090
