20
Coordinates from ORCA-job NEB_reactant E -32.637171314140
  C           1.85036337576120      0.04253683166104     -0.13065864944928
  C           1.52000022434845     -0.04117219092061     -1.42180945686781
  C           1.90200622033970      1.18466790934002      0.83349385200263
  H           2.20876052888345     -0.87611348086137      0.31169968011904
  C           1.58755647566494     -1.36498432654709     -2.13600672067540
  C           2.92942565249590      3.80481088905851     -2.75447760874842
  C           2.50645435926692      2.80405980076313     -2.00864875766335
  C           1.10299332436601      2.27505351096306     -2.09511301784665
  O           1.05455203097368      0.88042151444898     -2.30833993560973
  I           4.88321084450204      4.57181325811262     -2.65116068948704
  H           2.30710655943878      4.32364726577835     -3.46451007892504
  H           3.16655038916493      2.30486417694606     -1.31516869464207
  H           0.59559381878987      2.69618901510733     -2.96899932163898
  H           0.52523311422727      2.55608085520878     -1.20432775395095
  F           3.22021732038246      1.56166021427996      1.05707530147555
  H           1.51680316294614      0.86752965401689      1.80948361863129
  H           1.38267128924512      2.09048860337738      0.52025144429742
  H           2.37826149806382     -1.33290244157393     -2.88366907200427
  H           0.64832679440079     -1.54079210099943     -2.65555511083376
  H           1.78001301673853     -2.17955895815966     -1.44725902818320
