20
Coordinates from ORCA-job NEB_product E -32.654602451040
  C           2.57327621642679      0.80576608300440     -0.80252219000341
  C           1.37753327483422     -0.02941973364103     -1.27225763860674
  C           2.36726177359197      1.15417806717689      0.67158308909306
  H           3.49341540832810      0.22655830092738     -0.91956516482784
  C           1.72329597007389     -1.12286868208483     -2.24236420904044
  C           2.62149766620489      2.03088532543027     -1.73219433537160
  C           1.65792756300799      3.10404209796056     -1.37696510649452
  C           0.65494191996831      3.45855271710309     -2.15943411216750
  O           0.25878468434782      0.19722183085578     -0.89409300929358
  I           4.64227828666890      2.88260617132496     -1.79674690586590
  H           2.45412789847442      1.70082293246161     -2.75964426340384
  H           1.83133176125602      3.60631739504559     -0.43596002200271
  H           0.47220680901914      2.97894747554138     -3.10751312381425
  H          -0.03149521879864      4.23732413955134     -1.87763125065302
  F           3.32049743620846      2.02469633344206      1.12389831502648
  H           2.44348700509733      0.25044050305346      1.28575197627149
  H           1.38989036837496      1.62151370949038      0.82511116083010
  H           2.41285502463514     -0.76692671993983     -3.00403391422594
  H           0.82237215596339     -1.51612296786740     -2.70552587285043
  H           2.21611399631690     -1.92573497883605     -1.69499342259940
