17
Coordinates from ORCA-job NEB_reactant E -30.391985473600
  C           1.77315685579619      0.00424546472334     -0.01628463376173
  C           1.07586074782172      1.06905287717353      0.35829697018496
  C           2.14613651705938     -1.10320611960343      0.91372157544747
  H           2.10417607912502     -0.09174817048351     -1.03653841791464
  H           0.82207205562937      1.85409811159539     -0.34561693872441
  C          -0.31557193232143      3.21583477589058      4.26533317372901
  C          -0.60035598746390      2.39288618792574      3.27535666491467
  C           0.03544989871554      2.48192465089918      1.92610613526575
  O           0.61200399556177      1.22421873354311      1.62619095236839
  F          -0.91549749492497      3.11712884077670      5.45813276009695
  H           0.38246102741613      4.04036354144901      4.23088820112239
  H          -1.30723277291581      1.58970873920425      3.41765656913664
  H           0.80333996084725      3.26771014420345      1.91251121814373
  H          -0.73053617515745      2.72815480131979      1.17399476651020
  F           3.42688370919238     -1.53991390403784      0.65548549578124
  H           1.49548540964198     -1.97755886148616      0.78219325390533
  H           2.11716810597682     -0.77069981309311      1.95527225379404
