17
Coordinates from ORCA-job NEB_product E -30.396101665250
  C           1.66738692060147      0.92270963742575      1.32777367672335
  C           1.21010406244690      1.30812489211514     -0.05529834491022
  C           1.08708087837785     -0.43755772883071      1.71718316735754
  H           2.76273881618209      0.84403340234027      1.30283038172172
  H           1.57815387915056      2.30276786219540     -0.37518935124934
  C           1.34141988220098      2.05941472500170      2.32753023587642
  C          -0.06592058250708      1.99772838997322      2.84402964918333
  C          -1.11098453560534      2.42429094085072      2.16163667944766
  O           0.52543247681615      0.63665000551871     -0.77040059760477
  F           2.22427462617266      1.98835815729963      3.38053913799852
  H           1.54012615530636      3.02728778441299      1.84322638942700
  H          -0.16175045976998      1.56096386723998      3.82752450634981
  H          -1.01356819344304      2.85597429301497      1.17842660221612
  H          -2.10895780087434      2.35366042888993      2.55618292362441
  F           1.63771623462828     -0.88987734136328      2.88418603681741
  H           1.31540239399055     -1.17675139535542      0.94266154869460
  H           0.00444524632595     -0.37847792072900      1.86545735832644
