24
Coordinates from ORCA-job NEB_reactant E -46.016767188370
  C           2.06663427605365     -0.56019267556763      1.01995671199186
  C           1.02198346482289     -1.40819925326275      0.96699625061412
  N           3.29846511069398     -0.68248960474471      0.32343563009958
  H           1.98832988196548      0.32327766794627      1.63897732353589
  N          -0.21883912060982     -0.96186484590043      1.68540240872572
  C           4.22064616272317     -3.58074471929400      1.08027047445791
  C           2.90888619030233     -3.57930488291282      1.25853693753370
  C           1.91234486394442     -3.47330235826998      0.14439146762849
  O           0.82481641994638     -2.60446044131289      0.48094260969383
  C           5.22904871131750     -3.70037132368537      2.17240273752527
  H           4.62563669875161     -3.47960423318928      0.08125528453662
  H           2.47994195496903     -3.67383493145810      2.24827552712519
  H           1.41651172896207     -4.43137406170926     -0.03844953430985
  H           2.39950284820594     -3.12909083965724     -0.77590397506641
  O           4.27565301661153     -0.20209539740623      0.85400862062259
  O           3.28951017744101     -1.22043887269869     -0.76731175316032
  O          -1.07932679201264     -1.78600410026330      1.81703683142960
  O          -0.24724074260332      0.18042707601553      2.06486522870869
  C           6.28085590126005     -2.59679701275084      2.06216742220024
  H           5.72238740649187     -4.67321212029720      2.08845009574663
  H           4.73423636413250     -3.65655459560910      3.14440821163296
  H           6.83638287895410     -2.69336677928750      1.13259013607674
  H           6.98019425308826     -2.65851109615726      2.89164447366926
  H           5.81133834458799     -1.61579059852723      2.07615087898169
