19
Coordinates from ORCA-job NEB_reactant E -38.054319769220
  C           1.38248308369880     -0.02871761488460     -0.10249264611598
  C           2.08125169113051     -1.17503570193655     -0.01504089120632
  N           1.86110833269670      1.17003177110722      0.32568111250065
  H           0.42828519156188     -0.01348876230601     -0.60556161981839
  C           1.55590908899337     -2.44700845109419     -0.60906718230635
  C           5.40710881854528     -3.70104604333500      1.85094427764599
  C           4.27629650441575     -3.31461349818412      1.29251576184967
  C           3.55324449873069     -2.05678349605755      1.67311267043502
  O           3.33997924975717     -1.18631296269741      0.55448853383340
  H           5.89774299494664     -4.61448198564757      1.56318866974356
  H           5.88420638263903     -3.12454965523251      2.62690108304866
  H           3.81943661962275     -3.90500081200687      0.51228084974915
  H           4.15947855944485     -1.48064359014198      2.38019477441169
  H           2.59533179812844     -2.30228685739945      2.14911779394787
  H           2.69849179982082      1.13184727269441      0.88501151838513
  H           1.20894894222348      1.90823072508868      0.52025128643255
  F           2.44717609537087     -3.08071479965243     -1.38814399455109
  F           1.17791448458918     -3.35974266247594      0.32090082536150
  F           0.46590586368379     -2.24148287583812     -1.36638282334671
