19
Coordinates from ORCA-job NEB_product E -38.053593220870
  C           3.00190695490263     -0.93913937695452      0.13646528227327
  C           1.67175568759115     -1.59415809516156     -0.17949592794358
  N           2.87200146839154      0.19654980208453      1.01499814872220
  H           3.42082675451451     -0.58856335689093     -0.81813733962309
  C           1.72247945924452     -2.73052820537216     -1.24819637560328
  C           3.98433345882815     -1.96595224504306      0.74794035151071
  C           3.40685978990072     -2.59966438730375      1.97674146588681
  C           3.80015702399502     -2.31363461805699      3.20365215672033
  O           0.61925765899039     -1.28891064959048      0.30446737770808
  H           4.22379768753711     -2.73003910861263      0.00704219358209
  H           4.89381620575109     -1.42022805289292      0.99972622115512
  H           2.61204200586583     -3.31483398424998      1.80752618220935
  H           4.58830227127088     -1.60299371563362      3.39245398919578
  H           3.35886274161257     -2.78152191470169      4.06662919320333
  H           2.14639520543598      0.82563093740079      0.68904652745800
  H           2.61937072228710     -0.11071551582462      1.94905867387993
  F           2.71010912555298     -2.55123714339719     -2.14001148580771
  F           1.93526858607019     -3.92320774351469     -0.67183677123690
  F           0.58355719225765     -2.81555262628452     -1.93396986329045
