22
Coordinates from ORCA-job NEB_reactant E -38.868375798140
  C           2.07144130419602     -0.06212786610008     -0.04881681914037
  C           1.70539462668958      1.09886561618066     -0.59297208113559
  C           1.56822884399990     -0.59031319036835      1.24699663347537
  H           2.79195158775652     -0.66309339995637     -0.58679151218784
  N           2.26510883835421      1.49809911593834     -1.88623179471488
  C           1.97016787776893      5.07564287506586     -0.36019664605977
  C           2.27381095643054      3.88981707825811      0.13043578304855
  C           1.24827732997662      2.99510413779550      0.76243170677886
  O           0.77979567565442      1.96218038972016     -0.11115292067142
  I           3.38026891130079      6.34360453377530     -1.24856375324632
  H           0.97528405269143      5.48643554111903     -0.33633893684417
  H           3.28181756688235      3.50187483544758      0.07253858705958
  H           0.34516650445331      3.55385754010686      1.01361110317294
  H           1.66638903288855      2.54025468276164      1.67107518730631
  C           2.71763093444701     -0.80671997532615      2.23344594431676
  H           1.08437328534925     -1.55200324780918      1.05629708738937
  H           0.82385006025213      0.08751507071186      1.66690938146434
  H           3.45087113595570     -1.49411570831317      1.81933863465259
  H           2.33735174514650     -1.22317878555809      3.16216021241142
  H           3.21627626780602      0.13401561781488      2.45563109211969
  O           1.88183135689540      2.54758084565854     -2.34929725090246
  O           3.07371210510479      0.75520429307708     -2.40150963829294
