69
Coordinates from ORCA-job A2R E -98.704015940820
  Ru         -0.82988272042756      1.87061961841437      0.15232291910664
  H          -0.83571399596028      3.41596138937927      0.24749151734011
  N           0.75864383548655      1.93226117969354      1.51686668796577
  C           0.53871169506893      2.27560361470342      2.79875196848773
  C           2.01657263624124      1.64383669087849      1.14007896787653
  C           1.56090825758341      2.30370935021104      3.73684918877766
  C           3.07903528646776      1.66154998070010      2.03114488370599
  C           2.85271388470142      1.98420684021206      3.35709871952786
  H           1.33876607516662      2.58136784358026      4.75591215696242
  H           4.06806824603660      1.41312596892401      1.68114231218238
  H           3.66042056302761      1.99491767714106      4.07152727299683
  P          -2.07774875347502      1.86905215614590      2.07552933134915
  C          -3.59975564884971      2.98505407187656      2.27835216974162
  C          -2.38353600602152      0.21480303393764      2.97403638612100
  P           0.86199842126669      1.96450530703672     -1.27662218159432
  C           1.14552812340225      1.19786842259806     -2.85557107740853
  C           1.62576392846007      3.50060381831504     -1.78765861347017
  C          -0.84643417708723      2.69018198653369      3.18712863912581
  H          -0.94512338333224      3.76159577737884      2.96982581539898
  H          -1.03263174835496      2.52871054965145      4.25193609171561
  C           2.25618755220818      1.26850214105195     -0.29065435681117
  H           3.24112902041360      1.59248548556261     -0.64280092573032
  H           2.18740071345439      0.17340196347771     -0.37568018475586
  C          -2.23295745309084      1.82294466183275     -1.04790215756275
  O          -3.10750183500859      1.77220384470701     -1.79919088686056
  H          -0.72213064539568      0.32079180850486      0.10995427035947
  C          -3.83275617214196      3.50353459582404      3.69831563445822
  C          -3.40055336261911      4.19417378989784      1.36218033541181
  C          -4.81992863748833      2.21633335947899      1.76884637303235
  H          -3.02251399998694      4.15401754094007      4.01924640319259
  H          -4.74934696561661      4.09294212963096      3.70492686816886
  H          -3.94817296619817      2.70735170010841      4.42410557287281
  H          -3.31408939528428      3.87924580427595      0.32394980653859
  H          -4.25544135874011      4.86355712502527      1.45126623509005
  H          -2.50532284916866      4.75583183834462      1.62074870947676
  H          -4.57810088425575      1.72047319697779      0.82730711577328
  H          -5.16171084197634      1.47539586318439      2.48684975835917
  H          -5.64330962838330      2.90583092868936      1.58632854610886
  C          -0.99756464086837     -0.39523678573146      3.21107952268656
  C          -3.10042115883734      0.28939485550873      4.32038065461562
  C          -3.16244750031330     -0.69182093918540      2.01830120765826
  H          -0.45306419037056      0.13321217203079      3.99181853907223
  H          -1.10285022409218     -1.43234722905190      3.52762061708859
  H          -0.40308462253079     -0.38346321962507      2.29833366915807
  H          -4.13975108900292      0.58608773266904      4.21345969826308
  H          -3.08945005594785     -0.70162562396733      4.77460063566602
  H          -2.60042693104373      0.97011853466514      5.00661877994082
  H          -4.21878410748759     -0.44112914575951      1.99359388505336
  H          -2.76439376863421     -0.59119648195821      1.00762460190451
  H          -3.07369537847479     -1.73204198742295      2.33029376841941
  N           2.09712462468609      4.51768007157044     -2.02696620664631
  N           1.27770831712896      0.74489856382556     -3.90015632838701
  C           0.91579668099469     -2.21162018305510      0.04894675682196
  O           1.80362419197448     -1.67982061736391      0.68653547732567
  C           0.88584931677108     -2.16109731412532     -1.43165713312508
  C          -0.30362864841364     -2.14980487563836     -2.15742400015662
  C          -0.26991326535995     -2.11557813415166     -3.53832958047259
  C           0.94231353773552     -2.11524079003146     -4.20971113984248
  C           2.12960184930158     -2.12620315072265     -3.49605264633015
  C           2.10175713994221     -2.13212660876323     -2.11552342760452
  C          -0.19240827829293     -2.98640499374463      0.70827912161886
  H          -1.25264741006050     -2.13346674578730     -1.64412828302604
  H          -1.19447352843789     -2.08692612232902     -4.09514298836043
  H           0.96191110759126     -2.09515259142614     -5.28829080943203
  H           3.07518470040130     -2.11760474608729     -4.01674739775021
  H           3.01980473882324     -2.13920346709122     -1.54396634273483
  H           0.06163384659976     -3.18017222972035      1.74745692352052
  H          -0.37126604190528     -3.92067659533004      0.18187548016996
  H          -1.10282402199833     -2.39118440702643      0.67393667185365
