69
Coordinates from ORCA-job A2S E -98.704297591330
  Ru         -0.42264243832620      1.86331110410531      0.14480184734962
  H          -0.53528713861755      3.40467783170703      0.04326080830187
  N           0.92167416072220      2.20478946381673      1.70987985369826
  C           0.48233529327520      2.66427076471116      2.89578311908381
  C           2.24089570040449      1.98682968910735      1.55886334495857
  C           1.34126311086407      2.88191177135691      3.96376729866231
  C           3.14754494674087      2.19519667020321      2.58847076914803
  C           2.69617378042230      2.63889634860429      3.81859618052774
  H           0.94436602092126      3.24858266289578      4.89801302931036
  H           4.19492071298662      2.00214735552264      2.41835692435654
  H           3.38057758511168      2.80059409985393      4.63615116570219
  P          -1.95671959925956      1.96891638069879      1.84456642981730
  C          -3.55698716100860      2.97860347032321      1.68810951724285
  C          -2.29461921554404      0.40061914019727      2.87446592112484
  P           1.45916989419675      1.90923938573763     -1.03287324800460
  C           2.00843579215433      0.87578015640799     -2.37232470459146
  C           2.20168300969617      3.38267623135617     -1.72415462554269
  C          -0.97054916031975      3.00012751051359      3.02414578992813
  H          -1.10426181898542      4.03129354248400      2.67238320769038
  H          -1.30931357840238      2.93612597368780      4.06133322554845
  C           2.72898939817789      1.48642898194571      0.23589441678873
  H           3.72715987262722      1.86637748774435     -0.00554525874572
  H           2.76280005226419      0.38456273984085      0.25161587695781
  C          -1.62031255722583      1.56930807391085     -1.23000643214715
  O          -2.36889226610312      1.36228159826259     -2.08401649347307
  H          -0.21725458547694      0.33110312396493      0.31865500786641
  C          -4.04091777637368      3.62429392206504      2.98752131779738
  C          -3.28906323558866      4.09615150438274      0.67779055744087
  C          -4.63540354931038      2.07040331614455      1.09536623580677
  H          -3.33280774220189      4.36646963822929      3.34851405558355
  H          -4.98152743765114      4.13750789679715      2.78882834327872
  H          -4.22018504746750      2.90198431957924      3.77508539033802
  H          -3.02290732444725      3.68091970654199     -0.29241986993098
  H          -4.18540193421883      4.70408112162773      0.56029107857104
  H          -2.48017361885163      4.74883336608445      0.99951427117757
  H          -4.22199924302659      1.49988516003821      0.26214940610148
  H          -5.03874950640756      1.38378889333901      1.83523825059640
  H          -5.46048561172527      2.67277712701219      0.71693999379095
  C          -0.92828743167593     -0.07734600491959      3.37699333726529
  C          -3.21399230030828      0.56241903643804      4.08290961013519
  C          -2.85593151953757     -0.66280103692148      1.93002255488778
  H          -0.53034380603153      0.57428189250189      4.15337705609387
  H          -1.02080775250863     -1.07884874474307      3.79546440029987
  H          -0.21406552415815     -0.13285516888783      2.55609637329606
  H          -4.24069095082189      0.76054168925515      3.78906855209579
  H          -3.21014166690210     -0.37030943180025      4.64720960782357
  H          -2.87140073569550      1.35121772537654      4.74986663058513
  H          -3.89266634629205     -0.47056812850378      1.67124702210372
  H          -2.26749890124921     -0.68894219761382      1.01302684360579
  H          -2.79937886188260     -1.64385947158455      2.39934854289237
  N           2.64913184932602      4.36908802457171     -2.09902319377670
  N           2.30813968334609      0.20384560524349     -3.25075505042763
  C           1.36922881728044     -2.18634140048291     -0.07609332279827
  O           2.37828167581070     -1.56224369208813      0.19230260358945
  C           0.56176944798392     -2.82035679090119      0.99532984926863
  C          -0.71570278076874     -3.33347944433223      0.77999383385311
  C          -1.40779908019380     -3.92984577044131      1.81798988190566
  C          -0.83843151670879     -4.02448362386152      3.07805694755430
  C           0.42644471726235     -3.50576248318777      3.30532751256505
  C           1.11837643108595     -2.90546057114823      2.27204199673256
  C           0.89625767768591     -2.35855639592520     -1.49091342222014
  H          -1.18093228075841     -3.25684554919181     -0.18983250428473
  H          -2.39699807786325     -4.32745161874690      1.64272562142558
  H          -1.38179441778747     -4.49903120127365      3.88257996847627
  H           0.87150899633264     -3.57258054309720      4.28744387044810
  H           2.10677045280129     -2.49903885566005      2.43021234649144
  H           1.67526450468930     -2.04391077409360     -2.18111884653563
  H           0.02489086129910     -1.72183856763738     -1.64707850171605
  H           0.61807105221476     -3.39048403714497     -1.68833212374672
