69
Coordinates from ORCA-job A3R E -98.680322106670
  Ru          1.43973971939460      3.93615586097488      0.16605064089777
  H           2.75091348600482      4.69544943652951      0.07937647154026
  N           2.42963517510596      2.63594356034283      1.50292593644200
  C           2.65351633201130      2.97875288134540      2.77970495453408
  C           2.82825206103851      1.40451426013655      1.06210530408409
  C           3.14025667785925      2.08767791814309      3.71316324004752
  C           3.31256883378673      0.44990626681275      1.99279294248647
  C           3.44766703267212      0.78431128716938      3.30843180810977
  H           3.29889037569515      2.40129937458959      4.73235453855092
  H           3.58089989054213     -0.52900096941574      1.62792487142199
  H           3.81482747795599      0.06727090652971      4.02698753666608
  P           1.09798416032615      5.14235241143341      2.11395894301698
  C           1.49213541545099      6.99422699097889      2.16485211926534
  C          -0.45809845338876      4.77611258118779      3.14012498440437
  P           2.39917423480928      2.48547673830272     -1.32388681827108
  C           2.05405147609551      1.76037509341713     -2.90706530468895
  C           3.99312819070418      3.06818093337352     -1.91341669123369
  C           2.43814745231465      4.41904468206994      3.14814755579254
  H           3.35193384715099      4.95990745220779      2.87232644812119
  H           2.26811828754457      4.54621862937977      4.21977754740551
  C           2.70038291007807      1.09421093223329     -0.30315958451379
  H           3.14696040514959      0.19824397257601     -0.71196882570585
  H           0.70117874468529      0.58094694874173      0.48190486214827
  C           0.64943316117581      5.13824293006346     -0.98830115427920
  O           0.21286807573385      5.94472181353503     -1.68769872309027
  H          -0.06383250566656      2.89095014580928      0.17961724476490
  C           1.98247041420368      7.48813124173866      3.52729141331368
  C           2.60133920892868      7.24163294959661      1.13943008384628
  C           0.25786781954226      7.77925181579186      1.71964032808433
  H           2.93279181204154      7.03308842563255      3.79516380104973
  H           2.13837807256783      8.56489044474041      3.47057450338802
  H           1.26953743885072      7.29996126988687      4.32197456266666
  H           2.25564178334071      7.01315789674844      0.13223737476752
  H           2.90004748007508      8.28825001271183      1.17109439914139
  H           3.48240943678184      6.63471145362489      1.34175655151921
  H          -0.17040029982158      7.33124560309691      0.82323017688715
  H          -0.49971079374239      7.81857427290682      2.49794179546538
  H           0.54082376553254      8.80332118482513      1.48086780532066
  C          -0.39227143228321      3.27522520063744      3.44957629735478
  C          -0.60267362616390      5.52172745017992      4.46393725086531
  C          -1.66557706818667      5.07074233794390      2.24525442004297
  H           0.34185743202345      3.06563131782860      4.22529212678866
  H          -1.35917419541250      2.92654515134483      3.81204851227118
  H          -0.13019177827118      2.68218641042833      2.57270815563653
  H          -0.77519267438096      6.58416377161320      4.31672417869331
  H          -1.46479535243813      5.12043533289549      4.99693285058151
  H           0.26965910038770      5.38526379015875      5.09989563729779
  H          -1.89277469415077      6.13272732755228      2.22327199398845
  H          -1.47161878500187      4.74786079201571      1.21957068205301
  H          -2.54961770311877      4.55091852411329      2.61206733344582
  N           5.07284576738052      3.35432099237167     -2.17648792856014
  N           1.92459839145162      1.27496512891985     -3.93718777335610
  C          -0.65404723185656      1.89407579258911      0.01993740201637
  O          -0.13823627130144      0.90687361588658      0.85709448726985
  C          -0.64583607363009      1.53429615683435     -1.44974544557576
  C          -0.87397589658063      2.51507264592752     -2.41040544841116
  C          -1.02437274332175      2.17086077735853     -3.74000232360138
  C          -0.94222745724264      0.84331571016114     -4.12652104938020
  C          -0.71796182542733     -0.13734156952348     -3.17671861580312
  C          -0.57846899575697      0.20292525121341     -1.84308877607476
  C          -2.11181176588259      2.12444049536669      0.42526023204364
  H          -0.94705444659632      3.55358518769893     -2.11146949541710
  H          -1.19782779755447      2.94132371181714     -4.47548303760083
  H          -1.05167900312628      0.57538450788474     -5.16562685320036
  H          -0.65343726275892     -1.17349774601263     -3.47208360067357
  H          -0.43385986584116     -0.56975546075742     -1.10099942378389
  H          -2.18792386403963      2.29389495024479      1.49441670953601
  H          -2.67465297846989      1.22564407273509      0.18048162742558
  H          -2.53725850497973      2.96448876280355     -0.11628376923961
