69
Coordinates from ORCA-job A3S E -98.680571400270
  Ru          1.75377083618060      3.59606181799368      0.19481100579402
  H           3.10377739704624      4.27150053924281      0.04147331784066
  N           2.56961740402868      2.59346218022737      1.84322495622507
  C           2.65671001571144      3.17707577148487      3.05053964181545
  C           3.01058192783635      1.29856637562067      1.69288193104450
  C           2.98656126672532      2.48334501676405      4.19225514511776
  C           3.33011416187587      0.53841850302447      2.85713653391941
  C           3.29213947850960      1.11626671057034      4.08740316813449
  H           3.03329861551219      2.98750067586389      5.14400386447712
  H           3.60970539412981     -0.49508573782618      2.72475093239366
  H           3.52594707093349      0.54853211704164      4.97583636415262
  P           1.27945905061114      5.19376420169900      1.79647714972590
  C           1.74098674321315      7.00381103466842      1.49172161392596
  C          -0.38711436497231      5.09271529365911      2.71130659025352
  P           2.70985190712667      1.82336317571522     -0.89060836919628
  C           2.14682817886932      0.81373745504703     -2.24297704309962
  C           4.24414845240531      2.19094564231942     -1.74076507690617
  C           2.46733458444045      4.66954120721261      3.09983551461132
  H           3.42907434931652      5.12045937424961      2.82470193279330
  H           2.19247160774277      5.01694418497805      4.09845641069233
  C           3.15421082921608      0.76097048976233      0.42191015960344
  H           3.55965888245700     -0.22275487585849      0.24861554782355
  H          -0.10863454576965      0.02849802059640     -0.77648084549405
  C           1.06981731514780      4.48642132898624     -1.26920112134812
  O           0.65144353979683      5.05139472532946     -2.18406329959281
  H           0.19148879870729      2.62933123479644      0.34345264547990
  C           2.10206769129096      7.78327563239551      2.75695234165886
  C           2.96376827213180      6.98992994142652      0.57067855521131
  C           0.59629723006177      7.68620967822136      0.74244488430508
  H           2.96862624679198      7.35321087231953      3.25301944857107
  H           2.35672399730912      8.80446898664624      2.47538061788416
  H           1.28289579516682      7.83224364232404      3.46536903603825
  H           2.71743645976442      6.53781423812995     -0.38965869653805
  H           3.30171332929984      8.00999372437202      0.39523626118875
  H           3.79048241873282      6.43137463751188      1.00682601667558
  H           0.26003937909657      7.05636182221057     -0.08100112105854
  H          -0.24491956110829      7.90152191176389      1.39622691954317
  H           0.94162420448293      8.63056214672073      0.32451747193784
  C          -0.39492375296161      3.70959648404187      3.37206104822638
  C          -0.64661127796209      6.13540826033188      3.79436837146894
  C          -1.49338451305132      5.15460488714267      1.65544838086182
  H           0.20595809936196      3.69940075924027      4.27864399144554
  H          -1.41089528229409      3.42307100489741      3.64153389926407
  H          -0.00619134026732      2.94234844201675      2.70112965881177
  H          -0.78534450773422      7.12920816679487      3.37832260962664
  H          -1.56268770469011      5.86842547687514      4.32164360365309
  H           0.15869730554080      6.16185596656241      4.52533556309703
  H          -1.65359451609670      6.17073994173472      1.30591621988069
  H          -1.23042867855576      4.53915176240799      0.79292962772837
  H          -2.43173891137403      4.78671614492844      2.06869990277167
  N           5.28143431185650      2.37270110263430     -2.19569141619211
  N           1.78030634455864      0.15651456315350     -3.10809571168682
  C          -0.50159725813573      1.79063350387193      0.00092650157684
  O           0.38478153553386      0.75209444831627     -0.36732904600363
  C          -1.35126242305817      1.35837083430813      1.17865914388457
  C          -2.66790685839951      1.76625411287953      1.34874176785740
  C          -3.38972070767310      1.34190956424502      2.45152154946007
  C          -2.80806356476912      0.51173925294441      3.39391663353306
  C          -1.49489193150442      0.10319984766339      3.23129570351483
  C          -0.77189943248544      0.52452162428532      2.13186365401060
  C          -1.30070968397176      2.25318894965447     -1.21598677967324
  H          -3.14041715371124      2.41318919562658      0.62670205285412
  H          -4.41398670211275      1.66282620919763      2.57234588686775
  H          -3.37609857993751      0.18471895632619      4.25184434740529
  H          -1.03082026773667     -0.54203194326621      3.96181908518637
  H           0.25545383831847      0.21122109230172      2.00534495653520
  H          -0.62271204629561      2.38431572890889     -2.05990394047046
  H          -1.80948712482545      3.19666788990765     -1.03729934233639
  H          -2.03895157538518      1.49639407285610     -1.48089832876388
