21
Coordinates from ORCA-job NEB E -48.691097271190
  C          -0.71439780207963      1.18690829422119      1.18193092142898
  C          -0.22271451053861     -0.13707278600214      1.23426785186372
  C           0.23253770175544      2.28462142394000      0.87244769153734
  H          -1.32411346753920      1.41966230379154      2.05215002294521
  C           0.81317007789491     -0.65630793022238      2.21514525641172
  C           0.46465081812920     -0.96908748411015     -2.18184531269975
  C          -0.84835451512234     -0.93752154428631     -1.96004194607356
  C          -1.49419698242403     -0.76991879701369     -0.62620583838060
  O          -0.60445406966153     -1.07756677394072      0.44324644849963
  C           0.99179151068652     -1.10700672138136     -3.48189604651107
  H           1.20168549774036     -0.89563704212926     -1.39400466405727
  H          -1.54572047876418     -1.00690588031442     -2.78305607813984
  H          -2.34735268634952     -1.44685845481606     -0.52636367037795
  H          -1.81309077342509      0.28121380664566     -0.47017006181779
  F           1.34125433697975      2.39545020396953      1.69791419042092
  F           0.77087299411297      2.09643938968539     -0.36535998139010
  H          -0.26444593041297      3.26211845805976      0.88645412842765
  Br          0.79099391501433      0.27350274109836      3.90183042474337
  Br          0.59821792007459     -2.59161378781354      2.55004333939875
  Br          2.54519995107219     -0.39153456794797      1.28928112061634
  N           1.42846649285687     -1.21288485143343     -4.53576779684569
