21
Coordinates from ORCA-job NEB_product E -48.782221718030
  C           1.43737997725236     -0.62395847233875     -1.45167330510358
  C           2.41150844361681     -1.54101108612028     -0.74883079474897
  C           1.99777590295530      0.81196667790323     -1.47168760692129
  H           0.47508906140447     -0.57635914426923     -0.93058257376902
  C           1.95238970116427     -2.08632404300181      0.60609937791837
  C           1.18091475371537     -1.12129430456441     -2.90152342755732
  C           0.44164374669245     -2.43660326002946     -2.89509164416418
  C          -0.83177276777869     -2.55156330252991     -3.21735564387254
  O           3.48726411100342     -1.84084599419533     -1.16789419968347
  C           2.40650505162936     -1.29250052251325     -3.65934089408799
  H           0.57441205044125     -0.35919447778513     -3.40713289901191
  H           1.03102986309109     -3.30034411683678     -2.61792016131086
  H          -1.33132174327250     -3.50372212909731     -3.19866614279109
  H          -1.42666014090871     -1.70117722529596     -3.50805845219690
  F           3.14592136222859      0.90117905856903     -2.15868932058672
  F           1.10709850400911      1.62047742620349     -2.09080047712760
  H           2.16794289910009      1.21750105729802     -0.46142968591711
  Br          1.70836996164861     -0.56032314431468      1.80720692731476
  Br          0.26218964737205     -3.03541046839893      0.44718908217920
  Br          3.29895345403992     -3.26873436420127      1.32190465841101
  N           3.32536616059539     -1.47155816448128     -4.31172281697280
