14
Coordinates from ORCA-job NEB E -26.355844444240
  C           0.96891224436290     -0.93840782442008      0.45688359692070
  C          -0.28651449770125     -1.07182202506090      1.06770332321440
  Br          2.49830266618095     -0.97983750418003      1.57774649925302
  H           1.14122261874123     -1.47161107140623     -0.46730716008753
  H          -0.36601045658233     -0.87109184735497      2.14277066461583
  C           0.81252975016696      0.84875397930214     -0.44207528349408
  C          -0.55929944203976      1.15026606607315     -0.46365976589284
  C          -1.44176659512754      0.18925903558699     -0.93306687151732
  O          -1.33697627138570     -1.08474664090987      0.37034867623698
  Cl          1.85100383730554      1.95511511475033      0.39878629340433
  H           1.27995050716150      0.49401713394674     -1.35276508597216
  H          -0.92108228631658      1.85791596187235      0.27076004058554
  H          -1.13762670533387     -0.45281134160087     -1.74781719469419
  H          -2.50264536943207      0.37500096340126     -0.87830773257268
