14
Coordinates from ORCA-job NEB_product E -26.403256117960
  C           2.33869406146941      1.59080105566856     -0.81654619557899
  C           1.31418997640430      0.52544055796057     -0.49901037656475
  Br          2.61620436098493      2.55311777949354      0.86117655372684
  H           3.29888284695610      1.14162925546873     -1.08046749265710
  H           0.36376382745728      0.93636734177890     -0.11329760622715
  C           1.84854701689632      2.51541447019575     -1.92618489460293
  C           0.59168397539089      3.24824220321558     -1.59967059254310
  C          -0.48904757120193      3.21307734163411     -2.35748870257381
  O           1.50422015488731     -0.64567913767418     -0.63069501044335
  Cl          3.14162053891583      3.72879263513908     -2.28202869820027
  H           1.73173313870969      1.92230309975678     -2.83893724309759
  H           0.62659386965164      3.85080804843171     -0.70247980119219
  H          -0.53321602957986      2.63031190025584     -3.26311943404806
  H          -1.37447016694192      3.76667344867504     -2.09925050599756
