20
Coordinates from ORCA-job NEB_product E -45.689139157920
  C           2.12631548688934      1.76696232200089      1.25237988580015
  C           0.66117653349332      2.11362438429152      0.98460819098842
  C           2.25076084171113      0.24050986838071      1.11502604876999
  H           2.77760560997782      2.20954017039267      0.49456859025783
  H           0.47734482252763      2.55955606516151     -0.00889597779001
  C           2.53758075942537      2.24192794640500      2.66281302682470
  C           3.79168480155069      1.57708815163106      3.16269905106509
  C           3.83014755212483      0.85102434009757      4.26276020533856
  O          -0.22882029866810      1.85305650303859      1.73748493416485
  C           2.73053441121193      3.76005378874744      2.65583182181993
  H           1.70994485591455      2.01288709732007      3.34507949964748
  H           4.67324892922727      1.72399704294539      2.55640666524192
  H           2.95462371361070      0.68544206629413      4.86813177865428
  H           4.73984153121372      0.38139920196187      4.59252046617523
  F           3.54477401585967     -0.12780137812481      0.97245952565235
  F           1.78359487758962     -0.40497180932707      2.19918662873486
  H           1.70543994605957     -0.13912265728329      0.23498409098920
  Cl          3.02826031793025      4.33582520486333      4.30647952829786
  Cl          4.10559544907669      4.24229288163016      1.63510959393195
  Cl          1.27954584327400      4.58510880957326      2.02196644543535
