20
Coordinates from ORCA-job NEB_reactant E -45.686707866330
  C           2.22836555080391     -0.21599685624766      0.17975372577050
  C           2.92999381137894      0.41464098830612      1.11622165223598
  C           0.89339611362270     -0.82855240594860      0.44140720715584
  H           2.61207696885808     -0.31799890048567     -0.82055638620159
  H           3.89803395277530      0.84576593075593      0.88059588071383
  C           2.86356102189918      3.77483258326879      3.84918299137795
  C           2.99777083390405      2.84080314757121      2.92155442095764
  C           3.26073804760147      1.39537614831329      3.22623182968738
  O           2.51300411797073      0.53316819009076      2.39453104820591
  C           2.63339315385313      5.22025374811201      3.59361350648830
  H           2.93302021232892      3.53418144532702      4.90104808914989
  H           2.91892327770630      3.08416612659539      1.87086275253919
  H           2.96704540855308      1.15057096810439      4.24905793784349
  H           4.33716988306486      1.19520106383645      3.10921687891880
  F          -0.03485408973564     -0.36822857801669     -0.44062347142891
  F           0.92667148004288     -2.17759679045515      0.25754301614168
  H           0.52407884705168     -0.63556635459399      1.45839918220378
  Cl          1.13901189617564      5.73535810053762      4.43019015154019
  Cl          4.00119513034740      6.15573497926918      4.27436851406530
  Cl          2.48170438179738      5.63048646565960      1.88120107263487
