18
Coordinates from ORCA-job NEB_product E -43.391313145220
  C           2.92337974076633     -0.35426950350762     -1.54436499119974
  C           1.81633262657136     -1.27625303166645     -1.07660190395076
  C           2.79908836167215      0.91367420938615     -0.84607227764684
  H           3.87967028747482     -0.80677611671419     -1.24155545589985
  F           1.90705832675376     -1.48091044138448      0.25505742934124
  C           2.85827048508626     -0.18484940891857     -3.07909541762429
  C           1.72648678830038      0.71405260398158     -3.50454921734407
  C           0.72158544914495      0.30398313550377     -4.25263318750626
  O           0.97329201371438     -1.79715207608943     -1.70962402299540
  C           4.18312522216484      0.37857116970320     -3.59221667904242
  H           2.73927585169289     -1.17478405967373     -3.53437446770762
  H           1.79405847649151      1.73461625121366     -3.15323267531041
  H           0.64566044386831     -0.71232599325206     -4.60089968813180
  H          -0.07148086454440      0.97196845591932     -4.53736503309642
  N           2.68812709567068      1.90749320540009     -0.29866109030613
  F           5.22353793687147     -0.39015305312797     -3.22053711896760
  F           4.20619828231268      0.43372619360709     -4.92682214811323
  F           4.44193347598762      1.60948845961963     -3.14195205449840
