22
Coordinates from ORCA-job NEB_product E -41.268632314210
  C           2.29908435087878     -2.13110182022547      0.84605080677781
  C           0.99997141610947     -2.18163907731004      1.67931766802841
  C           2.08317359214658     -1.13936031143062     -0.28972978801635
  H           3.11843320952654     -1.73798209253095      1.45650413633357
  N           0.92223795399774     -1.21942051531141      2.62325814168672
  C           2.64675088229799     -3.53407283291715      0.30814753300487
  C           3.76735499130793     -3.47567088527156     -0.68830113015177
  C           3.65588704236059     -3.85458040256905     -1.94654048988190
  O           0.15021640500699     -3.01939975678773      1.51682304555044
  C           3.03625601602994     -4.44423156011294      1.47469325791256
  H           1.74774582454414     -3.93488480050929     -0.16972641309442
  H           4.71107845517368     -3.11076727406941     -0.30363336393551
  H           2.72329905983349     -4.21605773346830     -2.34716233007916
  H           4.48712482752666     -3.81262969635998     -2.62876648677729
  F           3.22816345336128     -0.78320787594066     -0.89311117493173
  F           1.26386667301508     -1.58375890363986     -1.24066544466724
  F           1.55224799234559      0.02025061282280      0.16137629511570
  H           0.05997212070384     -1.14173280863394      3.13934256627789
  H           1.55176386132356     -0.43639340350223      2.64752732863101
  H           2.21276166315748     -4.53390241849518      2.17761704784898
  H           3.90723118857954     -4.05159941118335      1.99627810513525
  H           3.27797902077313     -5.43435703255370      1.09780068923216
