22
Coordinates from ORCA-job NEB_reactant E -41.239720408420
  C           1.97422786698891     -0.39124426149833      0.36259473958189
  C           1.11072953933531     -1.29766291933433      0.87585185525948
  C           2.70798228965721     -0.40796956923892     -0.91452410359577
  H           2.14197492858627      0.50929213524971      0.92809981029735
  N           0.49251053690360     -1.04321968207922      2.07391915315587
  C           3.02436828815345     -5.09791648561116      0.66148713428620
  C           2.73661683616555     -3.82333256180773      0.45918743194887
  C           1.56990338526242     -3.34589357723903     -0.34994928397496
  O           0.70936376326723     -2.49060197250726      0.40497960022393
  C           4.19396562536864     -5.58558217655366      1.44540635879140
  H           2.39756757948337     -5.86775568389679      0.22887606491176
  H           3.35473032857839     -3.04566059905709      0.88582843474122
  H           0.92352446452775     -4.18194906576252     -0.62704915913222
  H           1.90775360051230     -2.85684673486723     -1.26717964428635
  F           3.74874706659072     -1.27956538021237     -0.98122190884954
  F           1.94732233280720     -0.69891130221869     -1.99829390276404
  F           3.24567674629798      0.79733243759893     -1.16474392579722
  H          -0.26983788997039     -1.66370585594944      2.29350807787626
  H           0.37898965907520     -0.08393288957390      2.35188324335872
  H           4.76456119805921     -4.75546422495369      1.85273842460537
  H           4.84627304568473     -6.18315901716538      0.80957691729028
  H           3.85864880866494     -6.22255061332192      2.26332468207150
