22
Coordinates from ORCA-job NEB_product E -32.605157158990
  C           2.47946672406637      1.43097423707863     -0.07246321851461
  C           1.31395271674492      1.33128429097568     -1.00492640736139
  C           2.31924616135810      0.35694876960433      1.01316238329915
  H           3.40318900850064      1.26454720238241     -0.63395197201262
  Cl          1.63229998431303      2.11027711473999     -2.57091897400994
  C           2.55590307001226      2.90842916395816      0.43416707067533
  C           1.60318151384080      3.14349810409319      1.57671284723786
  C           0.40424818802112      3.67615876983649      1.43638372715411
  O           0.25652439952927      0.83330507262533     -0.81538098047916
  N           3.94099617672524      3.23532067654116      0.72598124225561
  H           2.26367202304475      3.54989754679968     -0.40580660300887
  H           1.96875995306401      2.86470281874030      2.55699490234017
  H           0.02278542546186      3.96381775400668      0.47045842670110
  H          -0.25103183460722      3.83782378417320      2.27520435568093
  C           3.53294976663835      0.20201269521939      1.92072326961504
  H           2.14186034573504     -0.59289645629695      0.50342016403795
  H           1.42939395958007      0.57476987579932      1.60539319118572
  H           4.44624865168269      0.13667023239557      1.33403368154815
  H           3.43704420254178     -0.70825317064444      2.50811752407586
  H           3.62320495978066      1.03244995675888      2.61609875407791
  H           4.25936925295723      2.76380417046768      1.56438826715471
  H           4.04293535100903      4.23325739074535      0.86790834834699
