22
Coordinates from ORCA-job NEB_reactant E -32.599100339020
  C           2.76909455800203      0.49996343830766      0.29048280839205
  C           3.27542525943095      1.44468223890963      1.07425708080027
  C           1.36068381990953      0.00235216829671      0.40639540309719
  H           3.40344554504311      0.02558785824967     -0.44017991261755
  Cl          4.93505561045273      1.94293530349697      0.84611243000923
  C           2.02864437260271      4.21339234091584      0.32103577745753
  C           2.81963485845006      4.35782482384508      1.38109676718338
  C           2.93964601346506      3.34083517920404      2.47751059787119
  O           2.59754669770185      2.01838688878952      2.08029784567414
  N           1.83224406254212      5.16795795587303     -0.65687289703806
  H           1.42409756109909      3.32485173174776      0.20055836487120
  H           3.42151671166548      5.24583995607448      1.50537713056589
  H           2.24161009168773      3.55248085389849      3.29590943848589
  H           3.95912810866394      3.35449806541381      2.88464722558271
  C           1.32578246041433     -1.42847893544489      0.94259735751294
  H           0.89219832040228      0.02497538150715     -0.58145151095593
  H           0.80188984261444      0.65694723778221      1.07531249849673
  H           1.88440395745635     -2.09433794543090      0.28866552244195
  H           0.30018977027859     -1.78432560967797      1.00544256699804
  H           1.76898994445173     -1.46703571387031      1.93431247965119
  H           2.51698859896043      5.90946278618437     -0.66786497868528
  H           1.60878383470546      4.81530399592766     -1.57384199579473
