18
Coordinates from ORCA-job NEB_product E -43.896350567410
  C           2.46648194611200      0.88913088639546      0.41782487789459
  C           1.28184272112757      1.02106508002243     -0.50588059858966
  F           2.00735352573937      0.89757961541101      1.70660693499268
  H           2.98693746836268     -0.06835143589007      0.26064915662019
  N           1.64592331571805      0.74404169970382     -1.99099402243564
  C           3.45595471377941      2.05506072978332      0.21913064727120
  C           2.84657334301272      3.38876558932396      0.52051928664878
  C           2.81434601140105      4.37809335576725     -0.35220161795392
  O           0.16442498752732      1.29939884039634     -0.25579909739008
  N           4.64542611273667      1.80563486370856      1.13081018556710
  H           3.85636457415423      2.01131521400827     -0.80096159744036
  H           2.42929899570844      3.49353982613049      1.51148739851658
  H           3.23442016543019      4.28505674257434     -1.34083130189749
  H           2.36920631693255      5.32562810883366     -0.10823287136221
  O           0.72638960654813      0.75502863555979     -2.75453373434681
  O           2.81355304625442      0.55511482643886     -2.23618012664612
  O           5.12429539733068      2.76840644925853      1.65724913223148
  O           5.02370775212449      0.66959097257398      1.21553734831969
