18
Coordinates from ORCA-job NEB_reactant E -43.898205441570
  C           0.91948240595098     -0.47158146384380     -0.41339318281454
  C           1.32750399516243      0.73807514106600     -0.82650079756644
  F           1.15172731456432     -0.90958412761696      0.81268998631943
  H           0.35806471963072     -1.15485206952821     -1.03365739009327
  N           0.98805742881383      1.11601336982790     -2.19570854129746
  C           4.95635638625820      3.42354363479874      0.66554750757570
  C           3.71370919573206      2.95951781348389      0.68785604111912
  C           2.96965940980923      2.45905486483160     -0.49914590635597
  O           1.89850044699366      1.64166491606075     -0.02005033538468
  N           5.58220734028642      3.91844259030485      1.86103986332588
  H           5.59235084521554      3.47659805697900     -0.20494882438782
  H           3.16781150115087      2.94666911473546      1.62373731814992
  H           3.62600247536457      1.89132870132926     -1.16915668768085
  H           2.56301414662781      3.31485065005888     -1.05707437900280
  O           1.07976396898330      2.28883335296668     -2.47919940616208
  O           0.64173019105131      0.23257711121538     -2.94468858238230
  O           4.93778389235083      3.92786465838369      2.88472895538820
  O           6.72827433605394      4.29248368494690      1.75002436124998
