23
Coordinates from ORCA-job NEB E -32.459088154150
  C           0.53607716250365      0.88142489737636      0.60622415169268
  C          -0.66871153684913      0.16849732273240      0.64019318880263
  C           0.47394487547286      2.36743540170112      0.32784827585223
  H           1.22975015995848      0.66545831138155      1.41362799224108
  C          -0.85687723162196     -0.98738500198095      1.59499850257723
  C           1.35600963009152      0.22458832457067     -1.03608750416658
  C           0.37255706461108     -0.43371262619781     -1.77162772877362
  C          -0.89657761876414      0.23391139358757     -1.84588395019624
  O          -1.48642945594226      0.21872625122541     -0.38298580239814
  H           2.21078294200064     -0.36034071551748     -0.71999925114589
  H           1.63524261354518      1.21384934554867     -1.36660316008161
  H           0.33321058296170     -1.51448275467590     -1.71628602531467
  H          -1.68119266270332     -0.27501258179866     -2.39753078440248
  H          -0.85057841583604      1.29005794109112     -2.11048174068945
  F           1.72731824865256      2.90219774977210      0.14806276082715
  H           0.05009936854088      2.88334830654888      1.19902714073115
  H          -0.11258924143633      2.61512244430194     -0.56075798494415
  C          -0.36738951595699     -2.31648260695895      1.01572222756971
  H          -1.92375128681100     -1.07131235714308      1.81130226576759
  H          -0.33008035002507     -0.77167731420059      2.52495797372648
  H          -0.90858060740063     -2.54836568174516      0.10206759732491
  H          -0.53794004229635     -3.11756484265290      1.73058691141330
  H           0.69570531730467     -2.26828120696632      0.79362494358670
