23
Coordinates from ORCA-job NEB_product E -32.517819054110
  C           2.47107389896903     -1.01760489482852     -1.12046481065687
  C           1.17082531982143     -1.72293889412975     -0.76573342433201
  C           2.21256887420294      0.48811863836195     -1.19703257634800
  H           3.21912232560059     -1.20048846933672     -0.34360211703579
  C           1.26377993998992     -2.80537049578821      0.28740745183671
  C           3.03434352051837     -1.52435584189272     -2.46924894649290
  C           2.09967338595916     -1.29702272987775     -3.61575525478337
  C           2.39686488006954     -0.56026586900185     -4.66957696390970
  O           0.12163834375681     -1.41715456000184     -1.27468204699849
  H           3.24564800700497     -2.59317550840032     -2.38410597990175
  H           3.97526946793610     -1.00169813661782     -2.65405228012210
  H           1.13270382598176     -1.77450239016993     -3.53603625403734
  H           1.70365468046012     -0.42219843226380     -5.48158135439538
  H           3.35059823968912     -0.06664807819883     -4.76640990832078
  F           3.40133459368068      1.16197713395798     -1.33233693931910
  H           1.74244557777852      0.85840051369817     -0.28010785053139
  H           1.59472735161921      0.73661628828327     -2.06387341401799
  C           2.22631911457847     -3.93514288626831     -0.07358765971228
  H           0.26163505437989     -3.20947174755193      0.44258930355825
  H           1.59192898429832     -2.33220145576559      1.21706258495683
  H           1.93542216265283     -4.39572492111440     -1.01475208212291
  H           2.19857551622720     -4.69792255731978      0.70090003056698
  H           3.24864693482501     -3.57592470577329     -0.15811950788061
