23
Coordinates from ORCA-job NEB_reactant E -32.496842000560
  C           1.63604664152240     -0.31132735143772     -0.13451447344500
  C           1.34820852351403     -1.48829474237707     -0.70088320630617
  C           2.08434608678333      0.97565790222300     -0.75140729329663
  H           1.56951382518581     -0.28409472617650      0.94249917917905
  C           0.91417749887210     -2.65610102815518      0.15315637106443
  C           3.54744848704994     -2.07559991154695     -4.74217960782721
  C           2.38549739167213     -2.05644397298134     -4.11904951817987
  C           2.05430045335721     -1.12559940474754     -2.99126802147077
  O           1.38035576021670     -1.87912297394111     -1.99323563927435
  H           3.74207581709719     -2.74713844764738     -5.56049072078083
  H           4.34957621630881     -1.41115811423953     -4.46549174634432
  H           1.58575229118404     -2.72968363596663     -4.39367811651552
  H           1.38755452955287     -0.33490004596457     -3.36787206841766
  H           2.96669391525407     -0.67475679602084     -2.59270155116442
  F           3.45379962085535      0.98277062216849     -1.00383198397301
  H           1.91146836556411      1.80599396626449     -0.06042510108067
  H           1.60288736313931      1.19412986015716     -1.70810027533244
  C           2.10908559241819     -3.55738690944317      0.46457326363864
  H           0.16932649376656     -3.22621434175833     -0.40371933597038
  H           0.46533628285728     -2.29721885642790      1.07857886832818
  H           2.55620012580430     -3.91766959556795     -0.45853742827805
  H           1.79295293972051     -4.41332182451775      1.05577574441415
  H           2.86259577830375     -3.00651967189569      1.02260266103283
