21
Coordinates from ORCA-job NEB_reactant E -48.777470927110
  C           1.22146888210360     -0.37282153725778      0.07226981624476
  C           1.82461306238690     -1.17990093357649      0.96790071947227
  C           1.90774525418040      0.23615107225441     -1.08537726995446
  H           0.17381124055198     -0.13388559000467      0.17307517719374
  C           3.21150161975472     -1.51222169170459      0.85393588085990
  C          -1.14446535236923     -1.82836779324399      4.54605924949850
  C          -0.46989382088053     -2.32016991103527      3.52191745855018
  C          -0.11296069238398     -1.53183264625905      2.30276109702532
  O           1.26113818807830     -1.76031707397535      2.03658497495866
  C          -1.52351869835036     -2.63513488599792      5.75162637419902
  H          -1.50206971939017     -0.80934168718793      4.57586815985166
  H          -0.12743147111569     -3.34519445650213      3.52140207639437
  H          -0.29960666504629     -0.46148733764509      2.45737356888888
  H          -0.71737599508398     -1.88313171508069      1.45271818412277
  Br          0.65614005900077      1.32824508800644     -2.10456476868990
  Br          3.40356750609950      1.41748489077758     -0.53789809102481
  Br          2.64721455830340     -1.12115168335339     -2.32535633190861
  N           4.31829843862851     -1.78575686313924      0.76736760555083
  F          -2.86040389168913     -2.54832916485966      5.97512662294362
  F          -1.24548339869688     -3.94829285368824      5.59802580730126
  H          -1.01688910408188     -2.28834322652693      6.66938368852204
