21
Coordinates from ORCA-job NEB_product E -48.766772416630
  C           1.15513946178719     -0.75822107496781      1.86499148131562
  C           2.49721898469108     -1.03553928068210      2.57318157284460
  C           1.18419103369280     -1.17876320540327      0.39935163542974
  H           1.08810029943962      0.34020259263679      1.83875339939665
  C           3.11941831882900     -2.31869292373334      2.30194212112760
  C          -0.03512181924314     -1.22070593761781      2.76322856053542
  C          -1.33420141670062     -1.39530755841062      2.02213470372012
  C          -2.35882775036214     -0.57570739262564      2.16236688267177
  O           2.99527013196862     -0.22367806330078      3.30185089242272
  C           0.22305909617325     -2.48244297605732      3.59912346767827
  H          -0.16154886682146     -0.42712818304967      3.51055142293752
  H          -1.40600113514911     -2.26923672736337      1.39033198560858
  H          -2.31372426669516      0.29482361349754      2.79580498359682
  H          -3.27983418054985     -0.73660884002968      1.63157504354950
  Br         -0.15760300324558     -0.17344573550622     -0.61660470276136
  Br          2.94135881178442     -0.62108573526035     -0.33202993538379
  Br          0.94731948915862     -3.05413245449397     -0.02206594680930
  N           3.64136703745324     -3.32091752822929      2.12645343340620
  F           0.56925014812587     -3.55596883649743      2.86219077312853
  F           1.23702590226473     -2.28203445839892      4.47640649511989
  H          -0.67295627660138     -2.74900929450673      4.18126173046488
