15
Coordinates from ORCA-job NEB E -30.911951661420
  C           0.34167332397310      0.95703729299695     -0.94763559558622
  C          -0.87843059996635      0.26073316870067     -1.00828072770716
  Cl          1.67785277553520      0.32708486060630     -1.86022966843151
  H           0.34177082441465      2.04219812312818     -0.93703873879472
  O          -2.02212526648946      0.91701217382454     -0.64497349884964
  C           0.80408889778464      0.41942493992411      0.93443377874195
  C           0.78409100626494     -0.97110898684169      0.85213113889093
  C          -0.44568941563965     -1.59531298601862      0.57873191895500
  O          -0.90995070972259     -1.00327574252658     -0.98215183226887
  Cl          2.31306212053032      1.22126482816988      1.22365133528518
  H          -0.01964475023745      0.93806777861885      1.41337774735119
  H           1.69968102382144     -1.48066692407267      0.59257360595323
  H          -1.32461119854664     -1.24730935935554      1.10849083455431
  H          -0.43805219864907     -2.65879719824045      0.39031182546828
  H          -1.92371583307308      1.87364803108605     -0.71339212356195
