15
Coordinates from ORCA-job NEB_product E -30.965626156670
  C           2.02335920403767      0.27154365307031      1.53202183994104
  C           0.71089155215263      1.08243322102445      1.45556925708980
  Cl          1.87882141624290     -1.12042441953652      0.42502114319521
  H           2.85702458165219      0.88334241593090      1.17189774667134
  O           0.72328877112537      2.21758756994598      2.14761044525196
  C           2.32131925471750     -0.27196679002438      2.92989583468071
  C           3.44083805838827     -1.25851625721440      2.92818416699105
  C           3.37878239475977     -2.42530807924183      3.54229802530460
  O          -0.23226361501343      0.73358444292606      0.81697525446952
  Cl          2.82270007810970      1.10874934658469      4.00118727355232
  H           1.42111895532838     -0.69665025558877      3.38125468591892
  H           4.33139589008984     -0.94480901658825      2.40277642238244
  H           2.49545174892190     -2.74558985518684      4.06966160107117
  H           4.20744212835660     -3.11080600828596      3.53182120303339
  H           1.50382958113069      2.31683003218456      2.72462510044651
