15
Coordinates from ORCA-job NEB_reactant E -30.949327238680
  C           2.39362976323616      0.44864787448007      0.74848394181555
  C           1.34562845052473      0.30882891775413      1.56055011828605
  Cl          3.79221986226514     -0.55628244187002      0.65458646527850
  H           2.40396579834337      1.28185343859273      0.06860982476308
  O           0.35349896111633      1.22695518358800      1.46931325096998
  C           3.30176614058435      0.05010070797586      4.08644922628799
  C           3.15330986488679     -1.16993053360412      3.60095980209996
  C           1.93496981503451     -1.63963341456871      2.86171964634375
  O           1.03072406342190     -0.61257633425904      2.50606673063369
  Cl          4.71338167946419      0.54246122888881      4.92928427392728
  H           2.56439110526416      0.83150278676077      3.98899067604977
  H           3.92337262544344     -1.91615707798833      3.72335505686288
  H           1.34651409201507     -2.29733364228065      3.51244456723071
  H           2.23455077175693     -2.21251983677413      1.97780574056800
  H          -0.34832299335707      0.96788314330464      2.08278067888280
