17
Coordinates from ORCA-job NEB E -33.680736418910
  C           0.03815622472906     -1.33949532057927      0.56829290125931
  C          -1.30624878331694     -1.09050694480594      0.74443910330083
  H           0.69725032709913     -1.05797020883454      1.37897585100811
  H           0.34776726937821     -2.21842426821792      0.02168736685364
  I          -2.67802670166360     -2.06305679188063     -0.62200940872106
  C           0.44958243465761      0.21660644918669     -0.60256295759155
  C          -0.06080820093744      1.27837320963848      0.12837081376528
  C          -1.46613133277484      1.28162173839606      0.40725654674283
  O          -1.73520895293504     -0.01502073055298      1.29052227556221
  C           1.94080797889206      0.12049283016464     -0.80925875380788
  H          -0.09980235371127     -0.14940801871338     -1.46387850313271
  H           0.59450853729241      1.78453016271896      0.82268094669805
  H          -2.11998996196189      1.11131723847583     -0.44782326825684
  H          -1.82590023727431      2.08038257115847      1.04488773506531
  F           2.61813500746088      0.26296879595588      0.35472052301476
  F           2.28877162321531     -1.08890038378033     -1.30765242144326
  H           2.31713712185067      0.88648967166997     -1.50864875031702
