17
Coordinates from ORCA-job NEB_reactant E -33.701618526600
  C           2.05276494086494     -0.21159534960052     -0.39293727188196
  C           1.32591076999811      0.01219800188267     -1.47196006780346
  H           2.75124737942149      0.51025373374814     -0.00667942577011
  H           1.96885400852379     -1.13548746064390      0.14547801270354
  I          -0.03277211564258     -1.42945512639508     -2.21711837544126
  C           4.17919319749527      2.83654450166560     -3.19112145642905
  C           3.49602993869313      1.98331080538961     -2.44793708045520
  C           2.08106476043831      2.20649760539412     -2.00905716283248
  O           1.25410930452652      1.08751806029621     -2.27579907765394
  C           5.59889837657180      2.61351742275536     -3.61628377270470
  H           3.76707293601521      3.77772989728070     -3.52403057766856
  H           3.94591497312655      1.05029021853015     -2.13640714525433
  H           1.62931430922519      3.03135685357252     -2.56523067699556
  H           2.05405940732801      2.44565028842805     -0.93642905241247
  F           6.37287345131115      3.67330372141304     -3.26168367438807
  F           6.14766181850743      1.52771758964788     -3.02510773148317
  H           5.70100254359571      2.48854923663544     -4.70849546352921
