18
Coordinates from ORCA-job NEB E -33.335411373890
  C           0.00454244292525     -1.24931461095263     -1.07769076210540
  C          -0.46094785483994      0.05660792109361     -0.89568236247320
  Cl         -1.13548826247496     -2.54559612784312     -0.92087230950461
  H           0.73757335131357     -1.42345345092300     -1.85516192788380
  O           0.29249193499263      1.01963620087988     -1.49433973061813
  C           1.01008389912980     -1.34727543707091      0.68322734616791
  C          -0.00559873739020     -1.11453931123414      1.59228046132523
  C          -0.62078300162659      0.16399680573465      1.56356575108247
  O          -1.29044152978730      0.34967268544274      0.03666192263053
  I           1.96421753200396     -3.23455607068586      0.66115839710861
  H           1.71531918357437     -0.56330852870479      0.44221057652182
  H          -0.57636584520833     -1.95093460149429      1.96617805112660
  H           0.04144098719214      1.02403852196611      1.56781606543303
  H          -1.49318719929479      0.29915347298788      2.18906681631386
  C           0.00286408540005      2.36936006156568     -1.16763617078617
  H           0.26871759057170      2.95991070611408     -2.04210966179091
  H           0.60220233571884      2.69426954411057     -0.31302541580544
  H          -1.05664091220020      2.49233221901353     -0.93564704674241
