19
Coordinates from ORCA-job NEB E -47.292826924970
  C           0.70427532210584     -0.56212177725355      0.81073584359839
  C          -0.67747427794618     -0.40824068733456      1.07385561380255
  F           1.53647248791042      0.23674634453358      1.50674850147872
  H           1.13087904151192     -1.56203565588322      0.73473708076640
  C          -1.62796953456667     -1.53183646946639      0.86550749553129
  C           0.86020515427355      0.21899288649219     -0.86985275851106
  C           0.33945029921073      1.50151076532481     -0.66412098223141
  C          -1.02227247966712      1.61892259139699     -0.22100354458176
  O          -1.18082853103768      0.80128511568132      1.09204567368791
  N           2.30376507414474      0.12628128895610     -1.16811173590426
  H           0.31519592939113     -0.52416235191649     -1.44913213513860
  H           1.04270136867159      2.29887329364433     -0.46526179377621
  H          -1.75927516808872      1.15242801554935     -0.87728185895507
  H          -1.32633285764911      2.61867097244989      0.07230747868510
  Br         -0.99488175840650     -3.20817425180433      1.59844135004866
  Br         -3.34053537567706     -1.07754718524196      1.64063248715171
  Br         -1.96603172996138     -1.85152543950367     -1.12601039008507
  O           2.97280502161394      1.11556634968668     -1.04453538039078
  O           2.68985201416656     -0.96363380531107     -1.50970094517653
