19
Coordinates from ORCA-job NEB_reactant E -47.328048211120
  C           2.59874260459227     -0.54141248370542     -0.91885283594576
  C           1.53702016980929     -0.58870276820296     -1.72154903710065
  F           3.42728207385612      0.51245582966226     -0.85028408695518
  H           2.89863266982373     -1.33463449645291     -0.25463448238022
  C           0.63411565619912     -1.77819528742997     -1.79613985805823
  C           3.49510395400713      0.46622182062528     -4.10024294886538
  C           3.00217640650926      1.52587653958564     -3.47274009734242
  C           1.70527705235561      1.58298926950029     -2.74134755857666
  O           1.05584001521218      0.33638201252499     -2.59160239909940
  N           4.76553852203567      0.53497769096880     -4.76887857481822
  H           3.02615556077434     -0.50299582124651     -4.17907059385053
  H           3.57328605379269      2.44588867164194     -3.47688506540948
  H           0.99704813229024      2.18711126378980     -3.32068610414427
  H           1.84630953611654      2.07114031120881     -1.76947656083760
  Br          1.06315836744464     -3.22098377890342     -0.59463454581674
  Br         -1.19474284087018     -1.19020587915632     -1.42546545353135
  Br          0.68863410054581     -2.46582303847899     -3.63302238165257
  O           5.34455888989418      1.59761506817341     -4.79154672527008
  O           5.16656307561134     -0.49340492410474     -5.26494069034524
