24
Coordinates from ORCA-job NEB E -57.665719866150
  C          -0.06319094510523     -0.96147964390583      0.55346081406854
  C          -1.37709579008435     -1.01746908147849      0.02802669406868
  C           0.10047923074424     -0.36706190466692      1.93002652368530
  H           0.53640676606912     -1.86529211469781      0.47980652988477
  C          -1.66308760082914     -2.17691076194817     -0.93700950265162
  C           0.80880265985313      0.27784475076512     -0.68934578736046
  C          -0.09544070086273      1.37048171949112     -0.66283419937283
  C          -1.37905324988137      1.22566711901301     -1.16509764891512
  O          -2.11855038054666     -0.00113068465499     -0.02381778747542
  O           2.09972836486579      0.36015379409246     -0.31137875454262
  H           0.74105986100932     -0.39885194230330     -1.53940064951324
  H           0.09531060583037      2.18441049486279      0.01937646534100
  H          -1.54616323238776      0.62121672253571     -2.04518041617823
  H          -2.07640253639142      2.03794540917739     -1.03369151327820
  F           1.37552475948441     -0.41127627643202      2.34453982859596
  F          -0.29576894781173      0.90129246834504      2.06748209227886
  F          -0.60036327158924     -1.07830966183782      2.82865110845924
  F          -2.96160523290193     -2.34367497559881     -1.16382031679894
  F          -1.08287463884940     -1.96329656271246     -2.14379304511926
  F          -1.17120884552054     -3.34061433557740     -0.49372144299981
  C           2.56034595690613      1.52050865282078      0.36293152590828
  H           2.49529092050158      2.39344070642901     -0.29254825320361
  H           3.60175624091012      1.31528020610695      0.60003633451203
  H           2.01610000658729      1.71712590217463      1.28730140060671
