24
Coordinates from ORCA-job NEB_product E -57.687379599700
  C           2.30685093417613      0.93890762879409     -0.90125660254429
  C           1.79905570012006     -0.28819021301427     -1.61438160065284
  C           1.26481800176180      1.42208444811293      0.10709438716755
  H           3.23371442832346      0.74041279228519     -0.35646835096554
  C           2.89986237076533     -1.29443374089925     -2.07730946246592
  C           2.56793999655154      2.04698697522035     -2.00265193724097
  C           2.89537389188361      3.35244045967609     -1.33246788272713
  C           2.19869009559701      4.45400063545468     -1.53724063018224
  O           0.65647922057020     -0.50694895839666     -1.88058353173518
  O           3.51904710989146      1.59799402215207     -2.92638692170226
  H           1.64153990666335      2.15103962430155     -2.58149495249962
  H           3.74443755369302      3.34469256369966     -0.66396372251944
  H           1.34294026693272      4.47252066858185     -2.19098617974431
  H           2.45667281735578      5.37902991275484     -1.05196435936116
  F           1.79345896254678      2.30504493898387      0.96763453895346
  F           0.21464857999488      2.01512757393287     -0.45722600570970
  F           0.80019523488319      0.41383894489109      0.85418076340935
  F           2.53809732850343     -2.54386693794149     -1.78039244425722
  F           3.09439195989829     -1.22999691584547     -3.39308496021361
  F           4.08526692520504     -1.08341133622103     -1.48683673630985
  C           4.88653107434623      1.77974003498202     -2.60750892474940
  H           5.42903058486345      1.25013802885151     -3.38747891166470
  H           5.14911474890840      1.34997803606154     -1.63701190221110
  H           5.16114230656481      2.83797081358196     -2.62851367007387
