16
Coordinates from ORCA-job NEB E -36.068324278640
  C           0.63105938382384     -1.04393076108435     -0.19617196771137
  C          -0.74593366311292     -0.75638024419739     -0.55354059661739
  Br          0.76437721061140     -2.39673929717265      1.22387991841262
  H           1.21758604270659     -1.41599273110757     -1.03631615515018
  N          -0.97655028411874     -0.40642770559315     -1.95051961218800
  C           1.25862084406557      0.36367944283056      0.36260517542987
  C           0.23369302870216      1.25359179170081      0.88781468711357
  C          -0.86298136272886      0.62091015019890      1.52510270764335
  O          -1.52173782144319     -0.21316222600489      0.30145381673652
  I           2.47098517100867      1.28996293318369     -1.18129771530940
  H           1.96469672845647      0.03421261624443      1.12410288066274
  H           0.04082726174602      2.17950977521771      0.36425510586534
  H          -1.68293166325410      1.25789067069798      1.83480204694020
  H          -0.64337948347590     -0.15770913816441      2.25161352147211
  O          -1.93715109107978      0.28566846290370     -2.19545642302815
  O          -0.21118030190722     -0.89508373965338     -2.76232739027184
