16
Coordinates from ORCA-job NEB_product E -36.108279411310
  C           2.79356210957606      1.99787803240081     -0.15494891419371
  C           1.64394281292976      2.53480826420965     -0.93964318198536
  Br          1.94422911680370      0.42247557104639      0.72379137203131
  H           3.55323797785021      1.57813323987335     -0.82026609629121
  N           1.43931834232576      1.76365120351424     -2.27487810408279
  C           3.38679435175775      2.92100216128134      0.88831647236751
  C           2.43164961204280      3.41227157454451      1.91542631785736
  C           2.66337199990744      3.29810550547186      3.21140540918104
  O           0.86389799164596      3.38569705251656     -0.68432935444332
  I           4.24550423458161      4.60855341910168     -0.22483023078249
  H           4.24094503383599      2.43126243380729      1.36032653498000
  H           1.53031963694644      3.87940753814908      1.54652874020913
  H           1.95625603472228      3.65197295893451      3.94011773102515
  H           3.56199244015954      2.84173151787260      3.59444358911170
  O           0.41507236220590      2.00370199500515     -2.84485849411926
  O           2.32380594270878      1.01754753227097     -2.61600179086506
