19
Coordinates from ORCA-job NEB E -48.530045380500
  C           0.80971343552882     -0.16555317336244      0.91778063929846
  C          -0.50820365897687      0.26365440178200      1.21404232129809
  Cl          2.08005167661814      1.02565069543838      1.12311699490583
  H           1.12280628714570     -1.13547630870822      1.29374837716287
  C          -1.53876483600375     -0.74699136292648      1.66455027532481
  C           0.69170065786924     -0.34577894973178     -0.93524537935341
  C           0.23753478823787      0.90899428145878     -1.37266988055200
  C          -1.02932984514642      1.36043047921499     -0.90583189782750
  O          -0.93477269918774      1.37126212817480      0.69760029129548
  N           2.04505513604053     -0.73474252075946     -1.35086505208569
  H           0.03010746205896     -1.20819164383416     -0.96459662786951
  H           0.98582215488111      1.62527088931051     -1.68342720122277
  H          -1.86536394933390      0.68033903290313     -1.05249716737037
  H          -1.28275471015346      2.38863338665103     -1.13649863718513
  Cl         -2.09701961701403     -1.77816758021246      0.28204010522526
  Cl         -0.88418918941977     -1.82702361680235      2.90335954612976
  Cl         -2.95412749566752      0.10046541211604      2.30338151300392
  O           2.80545056159486      0.13349812098830     -1.68802225264893
  O           2.28628384092824     -1.91627367170062     -1.30996596752916
