19
Coordinates from ORCA-job NEB_reactant E -48.563010426090
  C           1.62331787243082     -0.08210907060103     -0.13477546585173
  C           1.55653606354124     -1.10148537458108     -0.99183161098229
  Cl          2.15501778088683      1.51956436992366     -0.46813776093100
  H           1.30973975270932     -0.21112165509122      0.88707139789386
  C           1.04947065853667     -2.45918036267229     -0.55536756173593
  C           2.86695205750716     -1.92454639483496     -4.73890932848342
  C           3.18334456686359     -0.74071950324402     -4.22917527791857
  C           2.72563248444960     -0.22740525465328     -2.91037452743166
  O           1.89667935839564     -1.19716306481206     -2.29594333310609
  N           3.35955668093290     -2.32621456967807     -6.02474460453422
  H           2.23916431734294     -2.65610345745875     -4.25636991921003
  H           3.82127875505493     -0.07378644298957     -4.79609455230321
  H           2.17916204209436      0.71262109767219     -3.06462558306347
  H           3.60189269781596     -0.01363382823229     -2.28471890879562
  Cl          2.42834167467524     -3.59647921423609     -0.58653281025898
  Cl          0.33965746395454     -2.48554158661388      1.05459482537380
  Cl         -0.17300257733385     -3.02263848647813     -1.71830703191900
  O           4.07404037136095     -1.55814827570839     -6.63187867519557
  O           3.02081797878115     -3.42060892571074     -6.41637927154689
