28
Coordinates from ORCA-job P E -37.711217995440
  C          -0.88370559751266      0.45174913581545     -2.31724673852899
  C          -0.84610362334190     -1.62587649907253     -0.14723701740725
  C          -1.12166946464632     -1.92585162414090     -1.58735694089290
  C          -1.12818991305675     -1.01304404717304     -2.54314340627950
  C          -1.00797183039538      0.78695531980665     -0.82940670790407
  C          -0.24431466613106     -0.23251145793360      0.02142903707790
  H          -1.31712900507365     -2.96298763255526     -1.82138921828293
  H          -1.31260837077851     -1.30226182645980     -3.56893539254052
  C          -1.84952062913307      1.28278039120799     -3.17317270519831
  H          -1.77571881775095     -1.70074385648403      0.42558630759345
  H           0.13905959137811      0.68092729482992     -2.64839539554201
  H          -0.15362412275226     -2.37341846168221      0.24643873038855
  H          -2.06125534613138      0.75944797782016     -0.54170342909532
  H          -0.29093503757944      0.07379664895973      1.07304989165737
  H          -0.61912427949430      1.78565425853407     -0.63249749168734
  C           1.22693517227175     -0.24344301414959     -0.35351314131808
  C          -1.56290212689547      2.77893298090293     -3.12537642118968
  H          -2.87269184757969      1.09481200741725     -2.83895770180415
  H          -1.77330618031201      0.94296155643659     -4.20890214508140
  H          -1.73892334697206      3.18164762447831     -2.13145719726019
  H          -2.20929046603095      3.30684736160183     -3.82309965803044
  H          -0.52892026856869      2.97753146999234     -3.39992101706504
  O           1.87526771811026     -1.21537693831782     -0.63459499627468
  O           1.74707608429480      0.99263712399641     -0.30210100275185
  C           3.12570353915665      1.10196040051134     -0.62387930289863
  H           3.38742886566818      2.14890707255884     -0.49372655225804
  H           3.30094825546654      0.78796012458396     -1.65508042564521
  H           3.72156571379021      0.47101660851500      0.03873003821926
