19
Coordinates from ORCA-job NEB E -40.753578665140
  C           0.59632652459131      0.44689503634310     -0.61298203368638
  C          -0.74970937070134      0.61477145343070     -0.01334418983411
  N           0.59753963380426     -0.31957145334653     -1.84630750251095
  H           1.03296558911301      1.42358810811695     -0.83585350881829
  C          -1.36862091750585      1.92919549252249      0.12759448419628
  C           1.44518404061538     -0.27990969048325      0.45541219892057
  C           0.71021914606539     -1.33664729459688      1.06661169814756
  C          -0.73396925764700     -1.54760679826962      0.85378870354808
  O          -1.46899313936918     -0.44665601440945      0.39531183727047
  I           3.38867924620120     -1.06610311847962     -0.51056546842740
  H           1.90105372385734      0.44640331754426      1.11943827811475
  H           1.23014956700974     -2.17632649059644      1.49844379832297
  H          -1.20975444291013     -1.80674501419564      1.80903312979945
  H          -0.90887340840279     -2.40930089733412      0.18920866393271
  H           0.22863315457812     -1.25456139962291     -1.71951063689839
  H           0.05624554837094      0.15422489049652     -2.55893128203794
  Cl         -0.33657200631897      2.96517449763964      1.23387989250729
  Cl         -1.41712020453787      2.80836979890693     -1.44458418662167
  Cl         -2.99338342681357      1.85480557633385      0.79335612407499
