19
Coordinates from ORCA-job NEB_product E -40.805386304280
  C           2.98756664710431      0.22210958752314      1.20757390163376
  C           1.48388950555634      0.42827548531237      1.36560385787427
  N           3.30350313106389     -0.40880752839643     -0.04879848949437
  H           3.51190786920376      1.18076201654868      1.25949992179832
  C           1.04753257943130      1.80113666824867      1.90326130131147
  C           3.44734269194133     -0.65973051426311      2.38348713066196
  C           2.71557833413793     -1.94713541338936      2.49183947903563
  C           2.03886306519944     -2.30122207213568      3.56944164538293
  O           0.66994222534788     -0.38602877343929      1.03735449740934
  I           5.56295615138024     -1.06309896575242      2.08414285296681
  H           3.38518127941878     -0.09787162796887      3.31505344293478
  H           2.77494683665870     -2.60254720988457      1.63487815005141
  H           1.97933199861124     -1.66650595052504      4.43906252636375
  H           1.51442642871873     -3.23868899612556      3.62370613923893
  H           2.72738182672871     -1.23019544957652     -0.19861865391722
  H           3.17142965579556      0.22415739004268     -0.82800437144385
  Cl          1.97249763890103      2.25728978421278      3.34099498808677
  Cl          1.39702641815149      2.95325552905803      0.58350531003256
  Cl         -0.67960428335065      1.82544604051050      2.27451637007276
