20
Coordinates from ORCA-job NEB_reactant E -41.471097127240
  C           1.82558074926006     -0.17448958134288     -0.19090145164275
  C           2.92554365140576     -0.40143464897810     -0.88961366683409
  C           0.55075263971527      0.30723900613919     -0.79598034078573
  H           1.86005479628331     -0.32390545057457      0.87622193963343
  F           4.04358409669593     -0.86680494329603     -0.26695481139900
  C           3.03242068844642     -3.07840503853832     -4.21663976315639
  C           3.15150688878436     -2.42189128473767     -3.07383767404749
  C           3.86579643502755     -1.11316427146103     -2.93583523267035
  O           3.09419529357476     -0.16953581242241     -2.20349412626906
  C           2.34841210644697     -4.38457260599300     -4.39595267310410
  H           3.46010654114309     -2.69243226865427     -5.13168276302216
  H           2.71933359316436     -2.80796170420751     -2.16049437211145
  H           4.04006595734048     -0.64724592458250     -3.90686608481439
  H           4.83157399272373     -1.27857731643461     -2.43756458994000
  H           0.63539308098838      0.34458170169811     -1.87804160571131
  H           0.31121547364667      1.30366324009334     -0.42725249157418
  H          -0.26741229881018     -0.35592464329667     -0.51908603569021
  Cl          1.07862891507988     -4.21725147912803     -5.64516881870853
  Cl          3.53537718880955     -5.59540411951344     -4.97503074071589
  Cl          1.59637021027364     -5.00908285476961     -2.92422469743637
