24
Coordinates from ORCA-job NEB E -40.797618930160
  C          -0.71530498117211      1.95925550387620     -0.36905700310027
  C          -0.72388281727008      0.81050623590067      0.30234374260144
  C          -1.30311699498024      2.13915738277606     -1.73380599613175
  H          -0.26719054487031      2.83102508290768      0.08611854062685
  O          -0.15865301796668      0.65019721099439      1.54404788172402
  C           0.61407559375323     -2.46518864339126      1.67956154664958
  C           0.52317465028124     -1.67430882429272      0.62337694443428
  C          -0.71086221288158     -1.54845067569339     -0.20882921392363
  O          -1.37907334086063     -0.28369978229976     -0.14851864736011
  C           1.85051401483871     -2.59853300801410      2.51205897102171
  H          -0.20792684990012     -3.07871292443054      2.01678246616018
  H           1.37106717320485     -1.07742372635345      0.31593335058639
  H          -1.45865314170400     -2.28611314544180      0.09632262695873
  H          -0.44484788986840     -1.72222930852153     -1.26224994154272
  C          -0.25195121246820      2.62590574528617     -2.73099071077936
  H          -2.11336504106488      2.87223881409199     -1.68583813029550
  H          -1.72614550729796      1.19119340909733     -2.06623483926479
  H           0.16833691279426      3.57624927068654     -2.40885968642187
  H          -0.69627928222515      2.76150967946288     -3.71402025714487
  H           0.55724484544139      1.90386925387399     -2.81386278389225
  H           0.22748431888203      1.48441455358206      1.83129367788493
  F           2.22511910580962     -3.90357811897662      2.61537861881007
  F           2.90991985640664     -1.94571415805721      1.97874512567311
  H           1.71031636311833     -2.22156982706357      3.54030371672582
