26
Coordinates from ORCA-job NEB_reactant E -48.344207799780
  C           1.87465971294702     -0.17162172872327      0.09798542560500
  C           1.38270198049737     -1.24927283664692      0.72790733055388
  C           1.79406838224136      0.25973694717395     -1.32848522427254
  H           2.39630891342340      0.53749279561043      0.71989708594778
  C           1.60619640460085     -1.39612266432296      2.21459773184421
  C           1.98077134644720     -4.29681249921386     -2.41815962814162
  C           1.90676475425062     -3.32283032693750     -1.52761015398297
  C           0.62601411147744     -2.68978544507353     -1.07740773804089
  O           0.68608750353094     -2.31069288718552      0.28664294031325
  C           3.26989430598571     -4.91526531029475     -2.86454830040165
  H           1.10894337132977     -4.70012436188386     -2.91148211303426
  H           2.80613233239240     -2.93581518961992     -1.06815302112619
  H          -0.19638853643634     -3.40876794975998     -1.12818784582348
  H           0.36974198608387     -1.84835566307650     -1.72591882127789
  F           2.41499060959091     -0.58581450875069     -2.20192294439264
  F           0.50535380112201      0.35129276254219     -1.78188711580480
  H           2.24783467541934      1.25101860909405     -1.47120431555933
  C           2.85724556804916     -2.23596887340450      2.47553785376079
  H           0.73801228800355     -1.90186561673719      2.63804280208221
  H           1.70923531670486     -0.41758241103164      2.68068475708653
  H           2.75389124899704     -3.21826674806910      2.02122798728567
  H           3.00658563883266     -2.36354528029390      3.54444130237915
  H           3.73564259696640     -1.75020624052712      2.05717488299439
  F           3.45938115882895     -4.73282583434142     -4.19912201412629
  F           4.34597433859944     -4.37182886354013     -2.25006295303103
  H           3.30065619011405     -6.00476987498637     -2.68398791083727
