17
Coordinates from ORCA-job NEB_product E -29.749915023420
  C           2.26924680490569     -2.26988781604698      0.84020918975972
  C           0.95169024721809     -1.69451564724788      0.37026581854234
  Br          3.53633740933934     -0.79506534878485      1.07727611026026
  H           2.11520454645170     -2.66463825570385      1.85165286867996
  H           0.73632825075794     -0.69112539018994      0.78124826848184
  C           2.80960757472593     -3.36019179170181     -0.08569592813417
  C           3.10762556667307     -2.81984666418840     -1.45670414807906
  C           2.46204058655469     -3.18550372493054     -2.54618464089253
  O           0.19515751005042     -2.26259181315272     -0.35734433818323
  C           4.05663108048033     -4.01086227119880      0.52079758755818
  H           2.02600709473244     -4.12323388453054     -0.16621308650385
  H           3.91008923201679     -2.09467206497132     -1.50232436639676
  H           1.66214424308545     -3.90614448416094     -2.51879727226314
  H           2.70681977814468     -2.77587670307661     -3.51058453915773
  F           4.35895552587235     -5.15906368072521     -0.15925605890269
  H           3.89298567865593     -4.29884483736057      1.56632084577039
  H           4.93112887033516     -3.35533562202905      0.44543368946047
