17
Coordinates from ORCA-job NEB E -35.911780570680
  C           1.37000262592618     -0.43881088429942     -0.41735112402399
  C           0.75040632174824     -0.83411326545565     -1.61347512368240
  I           1.77517885392822     -2.00090394889094      0.97387659779073
  H           2.21899119810980      0.23003581700538     -0.49033407212908
  H           0.88755436730067     -0.18685139303350     -2.48842270634551
  C          -0.06304757012842      0.61206963036970      0.27575531415809
  C          -1.14932410745125     -0.28358594614446      0.29133190414636
  C          -1.59701661036591     -0.80689508430182     -0.94252171660030
  O          -0.27313470937713     -1.60403616825079     -1.56482230409260
  C           0.30305905344307      1.31713352839050      1.55274794155359
  H          -0.05990035538213      1.34164919685068     -0.53542790556931
  H          -1.32179885689125     -0.87076222477728      1.18262525757214
  H          -1.77729913319482     -0.10167009632824     -1.74824682270058
  H          -2.33654069613055     -1.59513937814411     -0.89474907836645
  Br          2.11340539551756      2.05320122906363      1.54009026343995
  Br         -0.92585644650785      2.87207181491520      1.69553099231287
  Br          0.08532066945556      0.29660717303112      3.18339258253649
