19
Coordinates from ORCA-job R E -36.987826120620
  C          -1.25165183561753     -0.07530253635596     -2.96330577974475
  C           0.02230539344890     -2.65784335906902     -2.06346215446817
  C          -1.19306575555522     -2.22860824523745     -1.73557543558560
  C          -1.77616375649197     -0.95444172334942     -2.10954464316989
  C          -1.06037903944408      1.79478051379464      0.35746614878844
  C          -0.36366902838265      0.68184007829688      0.37288865699041
  H          -1.82736871893594     -2.85450357251417     -1.12116750276332
  H          -2.72432104617858     -0.71914561981505     -1.64262576412987
  C          -1.90260113502452      1.22913741858896     -3.26982826581237
  H           0.38370464968696     -3.61648884927043     -1.73501170093861
  H          -0.31870505491306     -0.22759796857299     -3.48198911514479
  H           0.70056331051907     -2.07310138312683     -2.66008895946006
  H          -2.03631910231568      1.83506537391361      0.81336151466540
  H          -0.69645693695885     -0.23719683365828      0.82386865513874
  H          -0.70391417887002      2.69919159591333     -0.10391307439242
  I           1.54979801694127      0.50475894686007     -0.48777419378830
  F          -2.03465622731262      1.43848967062887     -4.59065997743604
  F          -3.12743567847774      1.36089190925681     -2.73670458538261
  F          -1.18294387611773      2.27233458371642     -2.80278382336619
