19
Coordinates from ORCA-job TS E -36.971043569980
  C          -0.31418214760652      0.38450112612219     -0.94469232555591
  C           1.01543348147083     -1.84295892504213      0.23434770464934
  C          -0.30750567294999     -1.87104947640173     -0.05356796697016
  C          -0.96185815114982     -0.78953405970607     -0.67895907033759
  C           0.20786293760628      0.99153794314465      1.12208110465682
  C           1.02696496309779      0.06425349483030      1.67075536167751
  H          -0.93040451835255     -2.65447708508499      0.35434524347159
  H          -2.04177448378224     -0.80845637307650     -0.72842996276469
  C          -1.09412340571912      1.54239648137032     -1.48163475050391
  H           1.46534903759437     -2.62003528360795      0.83017635824530
  H           0.73561657210952      0.42798197398643     -1.18554733452888
  H           1.69888481588543     -1.24467123308486     -0.33881381824680
  H          -0.83412065073737      0.99438894906060      1.39777225017090
  H           0.69414278990751     -0.67288945727359      2.37712644277270
  H           0.60201578874131      1.91251133833145      0.72712189451134
  I           3.12318437984619      0.36265456305035      1.71230205520611
  F          -1.42923450269700      1.38298080955568     -2.77743708176602
  F          -2.24681043230273      1.74488830873525     -0.82175984315477
  F          -0.40944080096190      2.69597690509059     -1.41518626153290
