20
Coordinates from ORCA-job NEB E -28.660521253980
  C           1.00568834657961     -0.49619145963350      0.59742750539814
  C          -0.35995177580360     -0.26117528214790      0.43426659325040
  H           1.44594959151423     -0.27856850803424      1.56037537636973
  H           1.42879370062290     -1.36672546958194      0.11271360120359
  C          -1.13661933406898     -0.95013755389431     -0.65783601534747
  C           1.68570300830098      1.02179085494787     -0.32998773788542
  C           1.09298263146664      2.10623890840642      0.31076891265225
  C          -0.34124813935456      2.14319933888935      0.29953001352005
  O          -0.86416646056067      0.82106151711165      0.98674579281391
  Br          3.59774575131145      0.86183430092102     -0.21858479220358
  H           1.36595345153235      0.75127368085847     -1.33015990081996
  H           1.60622375479986      2.55259557106027      1.14967200947040
  H          -0.80020324534750      2.08746998888154     -0.68734884451080
  H          -0.78676078812653      2.92537619588706      0.90411824309009
  C          -1.51945960131743     -2.37406226215268     -0.25071062254241
  H          -0.53316263914992     -0.99120128579907     -1.57072047483402
  H          -2.04210705708345     -0.37568563466883     -0.86193539194113
  H          -0.63100014428717     -2.96160684567911     -0.03241712775294
  H          -2.06864513005772     -2.85990396734191     -1.05345425101895
  H          -2.14571592097049     -2.35558208803015      0.63753711108812
