20
Coordinates from ORCA-job NEB_reactant E -28.693118602870
  C           1.79685566406550      0.04949505363301     -0.22077540948092
  C           1.71430940841552      0.25873893318011     -1.52796546197713
  H           2.12000728192469      0.78964856812311      0.48774530542497
  H           1.53351986295728     -0.90939710463821      0.18358918120507
  C           1.23280840199836     -0.77812734058228     -2.50590127637259
  C           2.51086682507528      3.68351638242035     -3.60780936888336
  C           2.66094296155368      3.71103857099765     -2.29700989289779
  C           2.41462027245550      2.52880497089021     -1.41352052689893
  O           2.01301482075813      1.42235901105175     -2.18055971704204
  Br          2.82896754680616      5.19305712355242     -4.69575438622285
  H           2.20039104288197      2.80969841401808     -4.15478834649212
  H           2.97548955446245      4.60725719838831     -1.78170185386343
  H           1.63860503019762      2.78756026839001     -0.67550913369273
  H           3.33801639211859      2.29702035107858     -0.85873483307817
  C          -0.23397050019875     -0.54081156156219     -2.86671927423452
  H           1.35263576972709     -1.77029455790489     -2.07228121472999
  H           1.84175026272123     -0.71203722878431     -3.40906808456215
  H          -0.85826520612425     -0.61742112154216     -1.97959158788998
  H          -0.56864738829065     -1.27755329390158     -3.59273485295114
  H          -0.36021800350540      0.45074736319203     -3.29410926536019
