33
Coordinates from ORCA-job TS E -47.799845496950
  C          -1.91811771675008     -0.01520495286388     -1.03545648062047
  C          -0.90791139713238     -2.39909470193868      0.26825107742276
  C          -2.22566174425953     -2.15742786402915      0.08248248333586
  C          -2.74579240843322     -1.05921095764142     -0.62282544893606
  C          -1.27678257593768      0.83964522106116      0.63893279053070
  C          -0.30757565799345      0.05056566935151      1.24410375334778
  H          -2.94512174186666     -2.79814775809607      0.57535251872781
  H          -3.81509606888470     -0.90218353259375     -0.59961740564245
  C          -2.53747551638340      1.06322744299690     -1.85402534074808
  H          -0.58751653029860     -3.21818570790021      0.88991739882802
  H          -0.93127832384730     -0.27551085663252     -1.40362456447474
  H          -0.14164894544361     -1.92571805069980     -0.31506078224453
  H          -2.21709622345823      0.88557847386450      1.16638074325710
  H          -0.60472088986078     -0.62934391301589      2.02674228743148
  H          -0.97381300097555      1.78563703249553      0.21800329689953
  N           1.01669457513041      0.03283880224884      0.96823752861629
  Br         -4.00841279010406      1.96385803610112     -0.94837111403981
  Br         -1.24370967376755      2.42893189343330     -2.38977432395542
  Br         -3.25791913279281      0.32136944307370     -3.55377946300068
  C           1.64482824676664      0.87227567891689     -0.03565557951473
  C           2.66207084428230      1.82086355998260      0.60166792859431
  C           2.28917743385378      0.04315237976777     -1.15097098248692
  C           1.85869751277538     -0.80942087995373      1.78191732396883
  H           0.86103874822093      1.47914622555688     -0.49002121936202
  H           3.51119186784634      1.27732683125910      1.00757329191040
  H           2.19489855764258      2.38844107714196      1.40291983037723
  H           3.02693653657929      2.51812639417543     -0.14717875109680
  H           3.17664169028733     -0.48009839097200     -0.80402885689175
  H           2.58055776256417      0.70124568311581     -1.96480451554114
  H           1.58800609649282     -0.69136239459741     -1.54060187741825
  H           1.35884579877335     -1.76117334933257      1.96666644843913
  H           2.07985067470631     -0.34107516826467      2.74629434823232
  H           2.79621399226795     -1.00907136601124      1.27035365605431
