28
Coordinates from ORCA-job P E -34.812868033280
  C          -1.62604081893259      0.45514424443697     -2.26925244087726
  C          -0.30703528340910     -1.68499348243463     -1.24993167653975
  C          -1.74216724185716     -1.85638763113554     -1.63406002795380
  C          -2.39030055988185     -0.81958787955297     -2.13896449825352
  C          -0.90229380458242      0.77670209802971     -0.95575304350363
  C          -0.12061769020599     -0.42260089077441     -0.37928459914240
  H          -2.21184987546861     -2.81688305717115     -1.49333004523751
  H          -3.42466064500916     -0.82846622367269     -2.43869641544436
  F          -2.46588393414986      1.50708933579640     -2.58611612752242
  H           0.04266199264470     -2.56130524951579     -0.70765051212952
  H          -0.90579453839613      0.39248754208950     -3.09926753316832
  H           0.28925571806264     -1.58583122236235     -2.16093012720375
  H          -1.66849630043636      1.09349985325584     -0.24593192406019
  H          -0.56277993322934     -0.66137016397238      0.59447535998645
  H          -0.25276606900653      1.63219067618176     -1.13275200978304
  C           1.37245301258486     -0.09800099595978     -0.10393484928885
  C           1.45445199925153      1.02898717346524      0.93374290652510
  C           2.07197406093145     -1.32584426551779      0.49378463991494
  C           2.12875814312770      0.32176272577387     -1.36691829164393
  H           0.94141955572653      0.74071577197187      1.84858123476715
  H           1.00655363033086      1.94855749337452      0.56862411181570
  H           2.49372463926222      1.23746643590818      1.17804279880416
  H           1.50670968385214     -1.72113738292781      1.33495621921155
  H           3.06131099790834     -1.04940188043310      0.85169670839895
  H           2.19529037524849     -2.11271223162773     -0.24505675067326
  H           1.68666718187804      1.19929609724953     -1.83044591324111
  H           2.14690067828766     -0.48112116445518     -2.09960847310005
  H           3.15853502546794      0.56210427397988     -1.11177872065735
