20
Coordinates from ORCA-job NEB E -48.281979883320
  C           0.80998691937849     -0.38725201291419      0.64693491996212
  C          -0.39699746900272     -0.06814900596977      1.41469970328670
  Cl          2.17236360272946      0.65397146999936      1.14368628934377
  H           1.13695197549713     -1.42455890202227      0.72129791405457
  C          -1.27595892613701     -1.10670402891951      1.89395140713716
  C           0.44374988897732     -0.06746805355018     -0.91003827723281
  C          -0.01059206348560      1.31097266455942     -0.96239690928299
  C          -1.12509800482235      1.65613397798639     -0.15472968508928
  O          -0.88129069026522      1.12803328123418      1.32705900475352
  C           1.62254311520471     -0.37909464179304     -1.83360583383512
  H          -0.34833336646721     -0.79460808230526     -1.12782887906844
  H           0.68513666991844      2.07088175557806     -1.28122789573098
  H          -2.04493941158759      1.10488933409434     -0.36247839844837
  H          -1.30990476189251      2.71709089794568     -0.02516130054780
  Br         -0.46691117330275     -2.68658415451614      2.57057650171406
  Br         -2.64059997430738     -0.45483789166760      3.04787010245612
  Br         -2.44831856339084     -1.82105157763897      0.05050849695005
  F           2.59440996799166      0.55226392305175     -1.76796099044498
  F           2.18898147121764     -1.56125285719656     -1.50692654470530
  H           1.29482079374634     -0.44267609595567     -2.88422962527201
