20
Coordinates from ORCA-job NEB_product E -48.319167001710
  C           2.09514274286966     -0.86040200127424     -2.46073103204740
  C           0.82999754929428     -1.68562965539586     -2.39490939451893
  Cl          1.87931416958042      0.26262277939156     -1.07083678146732
  H           3.00588942389732     -1.43627287093110     -2.28060971203198
  C           0.94158331331346     -3.02242869516092     -1.67987209447788
  C           2.18625892627333     -0.04898919215911     -3.75780177757333
  C           3.23697903918889      1.02151898044831     -3.65062401890277
  C           2.98719773008140      2.30579978149371     -3.81227436818884
  O          -0.21655144895374     -1.33134944257699     -2.85091107967904
  C           2.53387176422967     -0.98321509426048     -4.92295429302979
  H           1.20491722296033      0.39052273589496     -3.96556791565936
  H           4.23306682822034      0.66409148416723     -3.43002656833379
  H           1.99669690494804      2.67159898820929     -4.02715869651391
  H           3.76401155577345      3.04503230372729     -3.72835784402296
  Br          1.80712876433005     -2.88870945869427      0.04704105992936
  Br         -0.81599858263758     -3.78348455799849     -1.46117620505341
  Br          2.01536067037106     -4.17880212324977     -2.82972287988190
  F           3.68895287566756     -1.64525445618088     -4.68082921563664
  F           1.58444165464001     -1.93310086055751     -5.08878672492245
  H           2.64323889595206     -0.44214864489272     -5.87409045798767
