20
Coordinates from ORCA-job NEB_reactant E -48.310857962170
  C           1.82180428972484     -0.14124068140861     -0.10170380478315
  C           1.60608471571589     -0.88052183056727     -1.19041628097272
  Cl          2.58074498185816      1.40341314602957     -0.02164008334495
  H           1.51110448025390     -0.49051750518512      0.86936076791457
  C           0.96380241865217     -2.23522783879900     -1.10743042196367
  C           2.36321747642889     -0.62016767031519     -5.18731710220788
  C           2.79897697052524      0.36568613112098     -4.42246864911738
  C           2.60930519586971      0.45411540061253     -2.94218105977801
  O           1.90049072420765     -0.68632339051754     -2.49275438716843
  C           2.57435307786158     -0.66630016774470     -6.66954555399732
  H           1.83740891166804     -1.47464498131297     -4.79175985460904
  H           3.33115573725133      1.20466508832320     -4.84832318942221
  H           2.05004884636733      1.36767212419032     -2.70508457548993
  H           3.59069287380895      0.50804448103930     -2.45450593547025
  Br          0.10622425241884     -2.65960800031036      0.56016513964798
  Br         -0.36840542982186     -2.38200579542468     -2.51797074015858
  Br          2.35150158770456     -3.58358321357538     -1.45260283993014
  F           3.23897281469100      0.42046871391309     -7.12913646251126
  F           3.32845528467233     -1.74377772482961     -7.01189796502763
  H           1.62646079014144     -0.74164628523856     -7.22958700161003
