22
Coordinates from ORCA-job NEB_product E -47.732369555450
  C           2.59262270559447     -1.32512619309642     -1.06891364341025
  C           1.56621145273749     -1.34634341006859      0.08153697618302
  C           2.71648694810679      0.11467899204171     -1.58223167053085
  H           3.58000239231470     -1.57007601330301     -0.65771127510510
  N           1.66311686212945     -2.42940254580321      0.88013215517049
  C           2.17794429721350     -2.43048212672923     -2.06960865259812
  C           0.78924142088618     -2.22635295554833     -2.61598346477946
  C          -0.21057250006360     -3.03952257276139     -2.33387064620766
  O           0.74655337264026     -0.47822735083434      0.23959367973917
  C           3.16139069430173     -2.69504941737462     -3.21161998962055
  H           2.17015608538311     -3.36256472463667     -1.48469784494234
  H           0.64127606765092     -1.37440577176823     -3.26108741641224
  H          -0.09314280357220     -3.89936986488392     -1.69371984410477
  H          -1.19375141177030     -2.87377603110808     -2.73597131811696
  F           3.94100860285487      0.30733539979520     -2.13427537778208
  F           1.81962775336978      0.44749250703708     -2.52714570727520
  H           2.60592633834291      0.83007538655997     -0.75325252581071
  H           1.03408476437075     -2.49346430877662      1.66424547987861
  H           2.42042053232609     -3.08735167173643      0.82562368117686
  Br          2.63140256249511     -4.39337786806925     -4.05809231832877
  Br          3.21551056787101     -1.36130776683762     -4.61537326998174
  Br          4.98128329481697     -2.96428169209800     -2.52907700714134
