22
Coordinates from ORCA-job NEB_reactant E -47.711672357400
  C           2.06674022358129     -0.25105996537999     -0.42804074806772
  C           1.69582788221865     -1.37329510369311      0.22338130047031
  C           1.49826806462071      0.34563204381085     -1.65858489466184
  H           2.86020690266197      0.32283804763034      0.01924128314871
  N           2.31182314614519     -1.73966807956304      1.39566206991464
  C           2.05814262204474     -3.16553722433001     -3.35665528064753
  C           1.80356316193210     -3.20973511855511     -2.05910718501934
  C           0.54645071872566     -2.68449436876944     -1.44084870954837
  O           0.74927617106675     -2.29259784204393     -0.09523188034607
  C           3.27768660582210     -3.66788616759611     -4.01791529661068
  H           1.34949224255646     -2.72313698970143     -4.04583978639796
  H           2.50835383422976     -3.63408930648378     -1.35545312726002
  H          -0.18897362253275     -3.49462744060246     -1.36659902837758
  H           0.10506065207263     -1.88791861842798     -2.04439133585618
  F           1.84050794346546     -0.31877822448788     -2.81288107694550
  F           0.13201858262416      0.35579771886135     -1.67070678238019
  H           1.82989635837787      1.38464444921683     -1.79272747412692
  H           1.82782114509623     -2.45320917646664      1.91716386401775
  H           2.73906272346270     -1.01371375249109      1.94472945072560
  Br          2.78428831274560     -5.06637640415763     -5.32433213222109
  Br          4.14666444464127     -2.20611276274821     -5.00824436038674
  Br          4.59672188444146     -4.43107571402152     -2.82231886942327
