19
Coordinates from ORCA-job NEB E -30.396169729410
  C           0.29763653509493      0.81967487193920      0.46277995351875
  C           0.08958653591359      1.46426415997297      1.69401734864649
  O           0.25216746860152      1.57854866769840     -0.64965921081436
  H           2.30302483358034     -0.26331054434705     -2.01428298008493
  H           0.15917586206176      2.56519543318424      1.62761412985212
  C           0.28438082637406     -0.72957831365673      0.47817761705074
  C          -1.17709698208010     -1.11648131897893      0.35364825535248
  C          -1.94180339969375     -1.34631693896954      1.40339075976456
  O          -0.03322831481774      0.89869602477712      2.77956317740668
  C           1.10357644489821     -1.33616292239909     -0.51396956461868
  H           0.64110751858735     -1.00516223574862      1.47861594493125
  H          -1.57086571955716     -1.15583591517237     -0.65404290237307
  H          -1.55557257023211     -1.27683511659173      2.40589528875706
  H          -2.98581133099986     -1.58675990474024      1.29586421388808
  C           0.44964873541304      1.12899727682833     -1.89756163135215
  H           0.28384908845632      1.94639555914469     -2.59509609401120
  H          -0.11029545573652      0.23095549680233     -2.16147405904605
  H           1.64796957293748      0.68454781708506     -2.10849278666294
  N           1.86255035119868     -1.50083209682805     -1.38498746020481
