19
Coordinates from ORCA-job NEB_product E -30.519990432420
  C           1.79497084478305     -1.44556418121284      0.35293151340942
  C           2.77894648209481     -1.00219423519211      1.42059280273095
  O           2.22654249330813     -0.90778924444545     -0.86303240152154
  H           0.80542790554282     -1.03259762840871      0.62865579587860
  H           3.46860455667342     -0.22067362039404      1.06193519731661
  C           1.66190733279206     -3.00443376529999      0.39448045172102
  C           0.37760148713868     -3.50312675772624     -0.21817022388349
  C          -0.79931655450235     -3.34994334239296      0.36004373188023
  O           2.81074976222760     -1.44071745792968      2.53315738493397
  C           2.80251377293012     -3.60257727870313     -0.25835721662209
  H           1.69042569545291     -3.27252135661938      1.45957060844381
  H           0.46564183379150     -4.00240074340282     -1.17365212959057
  H          -0.90615942206521     -2.86694111756163      1.31824351235473
  H          -1.70452417326414     -3.70547672476291     -0.09980392744250
  C           1.28789828450217     -0.94973006333149     -1.91169582037522
  H           1.71237366832668     -0.35294189269439     -2.71622717347660
  H           0.32781610303725     -0.52054942448778     -1.60130982221733
  H           1.12391015695909     -1.97052025777156     -2.26990696001682
  N           3.68246977027142     -4.08180090766289     -0.80685532352320
