23
Coordinates from ORCA-job NEB E -40.936306796220
  C           0.21762212330085     -0.67593008312355     -0.78913750397237
  C          -1.06874053399581     -0.14472071203615     -0.99482113943785
  C           0.35318174657336     -2.01923448238045     -0.11656983992876
  H           0.92440430961194     -0.53103898368290     -1.60140735765063
  C          -1.31201245388119      0.89677571653763     -2.04823804595649
  C           0.74721243154969      0.59417198461239      0.55358488021780
  C          -0.21086940000011      0.45796025464025      1.56512185035150
  C          -1.56647548482192      0.73297298560687      1.20319582387284
  O          -1.92737870566547     -0.23142717373550     -0.00742908071135
  C           2.18260530811418      0.31933501169633      0.91630275777529
  H           0.70567593382987      1.48302954118776     -0.07202431110398
  H          -0.01796024239925     -0.23785960200794      2.36699511510140
  H          -1.74682365126576      1.71198239928838      0.76049083961624
  H          -2.31346767819535      0.48272947469715      1.94753313952787
  H          -0.35253405176598     -2.11141807700206      0.70434233574580
  H           1.36069002845943     -2.19278592357231      0.24829024555766
  H           0.12766234123741     -2.79338746080569     -0.84950248502203
  H          -1.16349621693888      1.89627366015849     -1.62768264499007
  H          -2.34327370243769      0.83855404682190     -2.38885612008068
  H          -0.64247189199981      0.76852399696664     -2.89259489966712
  F           2.34838401311299     -0.65619604883891      1.81709457457827
  F           2.94344679591860     -0.00684823868458     -0.14293007874843
  F           2.75461898165892      1.41853771365628      1.44824194492509
