23
Coordinates from ORCA-job NEB_reactant E -40.959752696210
  C           1.79810965693200      0.14906366155617      0.13180883235500
  C           1.40977598871471      1.39219203802972     -0.14012449401162
  C           2.40939732910525     -0.46520137818171      1.35854307504839
  H           1.63850939674973     -0.55835477740874     -0.66920873102087
  C           0.83099846259520      1.76049466258092     -1.47953043320516
  C           3.86811947720151      2.46436662498830      3.37228904407226
  C           3.27720724890119      2.55244662288025      2.19048811822063
  C           1.79179901031446      2.51265178472591      1.98499446514128
  O           1.42185191382923      2.53054515122587      0.63288885618776
  C           5.35024388435281      2.52513623552709      3.54644488550733
  H           3.32733654354472      2.33292571723926      4.29720577067569
  H           3.86302135433505      2.68720045365411      1.29026941384054
  H           1.36079647777323      3.43325677433439      2.39978207729393
  H           1.34385479882660      1.66484896016944      2.51469481870797
  H           3.12086396463192      0.19303843948817      1.85025231318227
  H           2.93757164017895     -1.37221925781251      1.07268441344474
  H           1.64321167609270     -0.75024680170313      2.08202761517207
  H           1.40770677591678      2.57518536183563     -1.91278465668542
  H          -0.19194470548533      2.11066283418260     -1.35363615935829
  H           0.83967492240465      0.91409623561638     -2.15713420323163
  F           6.01839882264089      2.71168151780564      2.40122998128058
  F           5.71978639140329      3.52089232017804      4.37292928007752
  F           5.83750896904044      1.39333681908822      4.09168571730502
