23
Coordinates from ORCA-job NEB_product E -40.982070152270
  C           2.83412863364710      1.06629321691012      0.67346021532039
  C           1.44607584106818      1.51448365850071      0.20628287107032
  C           2.81716039987343     -0.42906244652734      0.98269080122231
  H           3.56442151009453      1.27838335194021     -0.11331756482933
  C           1.45754951277373      2.50476862846482     -0.92608819198223
  C           3.17940253092709      1.94990523838729      1.90207064506764
  C           2.44816770633395      1.53013149861467      3.14593965703639
  C           1.42420298390751      2.19496069564040      3.64370448932367
  O           0.43813968535845      1.10836421439052      0.71937135486586
  C           4.68070259429776      1.96038160222928      2.16799268227925
  H           2.92511272389765      2.99057281828030      1.66439975723256
  H           2.81125316623086      0.62864137913053      3.61743829624309
  H           1.04820552098529      3.09429985212058      3.18502520599790
  H           0.91126874933459      1.85811293536264      4.52678428414642
  H           1.98430198812902     -0.65945196147641      1.64207837134579
  H           3.74480304610121     -0.75314090071383      1.44437312452644
  H           2.68211695894049     -0.98508126961036      0.05746786673859
  H           2.18193283306254      3.29460866786795     -0.74204376651846
  H           0.46762832329909      2.92936588339220     -1.06940094934062
  H           1.75417751033762      1.98551373003996     -1.83632008781874
  F           5.17752426819382      0.78380513634896      2.56759437101553
  F           5.38563629672610      2.31714863145208      1.07882929314854
  F           4.99918721648002      2.84839543925475      3.12356727390869
