21
Coordinates from ORCA-job NEB E -39.839786013270
  C           0.27780990939924      0.16448595350482     -1.27058520080285
  C          -1.00073104033743     -0.07721380627695     -1.81132454067411
  C           1.34576405806203     -0.83631242384951     -1.51158145643592
  H           0.62520070610291      1.18990285219656     -1.34718656120440
  H          -1.25325697876333     -1.10219518036834     -2.11507152787431
  C          -0.09161108052708      0.31973064468684      0.70850024876572
  C          -1.48872445340683      0.49528545011308      0.78449993446142
  C          -2.10115977471365      1.46389337246333      0.01190007949170
  O          -1.93133546754622      0.75533929461511     -1.68628096878954
  O           0.43785250238445     -0.81196005891055      1.25217135240201
  H           0.53751425051347      1.20563021378715      0.82625015927061
  H          -2.05569454153086     -0.38558457028549      1.05744884793163
  H          -1.57329741299734      2.38355003851064     -0.19782383679605
  H          -3.17564848735256      1.54895048736130      0.02028274371092
  Br          1.80393442150013     -0.86994091474648     -3.45732919398253
  Br          2.98983680776790     -0.37433579036084     -0.58529036911403
  Br          0.84365225282207     -2.63855158905017     -1.01340541315547
  C           1.28811265668651     -0.63011451542346      2.36777197991604
  H           2.02640895067905      0.15773888420374      2.19042884275616
  H           1.79659991850319     -1.57938822286204      2.52209122717538
  H           0.69877280275437     -0.37891011930874      3.25453365294763
