21
Coordinates from ORCA-job NEB_product E -39.879461335980
  C           1.78382353525259      0.34193287806038      1.87250802611480
  C           0.88062479357324      1.15536804181683      0.95733958399601
  C           1.84376202015669     -1.10100256394678      1.41482628811679
  H           2.79693636840671      0.76378369341068      1.77291149436508
  H           0.88082797754531      0.81406722532767     -0.09446203770913
  C           1.40576628940031      0.55984032280581      3.35861341133810
  C           0.20691985969507     -0.23511510260483      3.80339399850164
  C          -1.01480386003903      0.26203032515969      3.84620177050585
  O           0.23749801800557      2.09707600977129      1.30814410487132
  O           2.56938580569224      0.25533260246168      4.10100211278256
  H           1.17367597584897      1.63506429061466      3.45482070835643
  H           0.41307072173187     -1.24949523991706      4.11916837892268
  H          -1.22366171977544      1.27504191310948      3.54388368397186
  H          -1.85419800401319     -0.33294256539608      4.16075517410154
  Br          2.80329939898838     -1.19256817193948     -0.29653779220499
  Br          2.77649983569728     -2.26686899775847      2.63956898731994
  Br          0.05879578244592     -1.83004749489457      1.09553301037345
  C           2.50063238700896      0.64240227214841      5.45165185485646
  H           2.35803527687981      1.72591846910949      5.53831947329728
  H           3.45287317272891      0.35919981693603      5.89391077907220
  H           1.68563636476982      0.13398227572515      5.97614698905011
