22
Coordinates from ORCA-job NEB_reactant E -36.819163689470
  C           1.01763764126996      0.32118549426490     -0.20342403391393
  C           0.73879889595658     -0.93283303538846     -0.55374768392184
  O           1.76554580584779      1.13948213818829     -0.98905423993730
  H           0.64971553608813      0.72096473944674      0.73340081569371
  Br         -0.43889900591274     -1.91538836719921      0.62710739400995
  C          -0.27319707567258     -0.50301322091153     -4.36564190413526
  C          -0.55055674639253     -0.98932036453987     -3.16085795702069
  C           0.24868028178939     -2.09265679954393     -2.54727801303012
  O           1.21439729389677     -1.60211060916989     -1.60383914085913
  O          -0.87826263608965      0.50187967021849     -5.02673642009937
  H           0.51701055687794     -0.92322889210329     -4.97413574749752
  H          -1.32866399707885     -0.57101224096862     -2.54021953504972
  H           0.84707589762150     -2.61710783106562     -3.29286875139798
  H          -0.40898656735086     -2.80773054817944     -2.03351820564902
  C           2.22307132940771      2.31604641155549     -0.36396519007028
  H           2.71665303617043      2.89861576694332     -1.13922132697433
  H           2.93968676499215      2.08990245149964      0.43227617460680
  H           1.39230008957656      2.89404697373404      0.05491390831574
  C          -1.91636659197240      1.18819441338540     -4.36484227999095
  H          -2.24869493405852      1.96565834962609     -5.05012132115805
  H          -1.55749275342545      1.64512433802818     -3.43755880495779
  H          -2.75145282154135      0.51850116217926     -4.13776773696293
