21
Coordinates from ORCA-job NEB_product E -37.293272452340
  C           2.23149926446374     -1.46287808200773     -1.32163881135967
  C           1.00419935924770     -2.14330751176976     -0.68590489728920
  N           2.09518028879118     -0.01739474824124     -1.31078061639130
  H           3.14203069590275     -1.72933985159134     -0.77484853703605
  N           1.26975772025746     -3.23781097849717      0.05642834033141
  C           2.37096045434069     -1.91406285089881     -2.79506607674850
  C           3.49320372157233     -1.16168921000800     -3.45157411771677
  C           3.34728807049566     -0.41026471167352     -4.52479349532317
  O          -0.10485931954293     -1.67125549266427     -0.80743648635492
  C           2.63323819701418     -3.41460778614117     -2.91520640504855
  H           1.42829934190789     -1.71038968189093     -3.31310690653063
  H           4.45681960446192     -1.27268266919570     -2.97493580648821
  H           2.39072802779339     -0.28201369453934     -5.00342486494436
  H           4.17639120659386      0.11695146163403     -4.96313267176709
  H           2.11690464716108      0.32484438023539     -0.35594547734119
  H           1.18269452540731      0.22370866898845     -1.69000363673833
  H           0.48984359815083     -3.76793333193927      0.41233681910719
  H           2.16524546403126     -3.69353749264364      0.01949530526269
  F           3.56379181346723     -3.83836728287188     -2.01766951999286
  F           1.52313516075427     -4.14927613340585     -2.65568830850062
  H           2.98854815772818     -3.69739300087823     -3.91780382912986
