21
Coordinates from ORCA-job NEB_reactant E -37.257652631810
  C           1.24803608196110     -0.19274726353498     -0.18067925893629
  C           2.01890691276418     -0.97972231663701     -0.93685967628019
  N           0.72782366394347      1.04596566042682     -0.59653946261955
  H           1.05212462293211     -0.45182418687686      0.84763567279279
  N           2.74075891874187     -2.08324097709116     -0.44620081928992
  C           2.21398076036394     -3.12516762001140     -3.66636792219383
  C           3.32797979298826     -2.42347645917961     -3.53635142180508
  C           3.39948012797290     -1.08022139072450     -2.87328136176392
  O           2.19189583724776     -0.67135919280821     -2.27771418989958
  C           2.13818100793753     -4.47062844782830     -4.31515554869146
  H           1.26928188479196     -2.76443296120108     -3.28475762329976
  H           4.26571999862320     -2.79239482684017     -3.92733996238264
  H           3.63194011859361     -0.32684657196889     -3.63695858776705
  H           4.21167700433215     -1.08525877946815     -2.13610486069565
  H          -0.24826598549874      1.16386519367813     -0.35569341168993
  H           0.87102591026651      1.17885175833411     -1.58960093160241
  H           2.64298699670092     -2.91150988770450     -1.02264132848025
  H           2.49671791442950     -2.28453216583099      0.51287457361574
  F           3.34629454003780     -4.91257013230678     -4.73645059559814
  F           1.68633764517991     -5.40129804677203     -3.42585320880163
  H           1.45231624569003     -4.49365138565446     -5.17916007461126
