24
Coordinates from ORCA-job NEB E -41.204271472610
  C           0.28920125633893     -0.37744065186272      1.05194836363636
  C          -0.80419271859643     -0.71062160438385      0.22310635585348
  C           0.06858891209049      0.08415382724627      2.47583952140061
  H           1.10983128646235     -1.09103794232639      1.04459942952490
  C          -0.67735135780337     -1.87987478856883     -0.72638823112352
  C           0.94056750573788      1.27993111763214      0.21476974135130
  C          -0.01881911209081      1.69570767651214     -0.72889565383895
  C          -1.35854521734211      1.73644694347303     -0.28082128867095
  O          -1.75010827110225      0.13455972853611      0.01376771253785
  C           2.22810775395440      0.92420006354686     -0.27582220478954
  H           0.98221607499594      1.83465980193601      1.14652510337594
  H           0.15943236821178      1.44381566656734     -1.76659273186475
  H          -2.12251900345811      1.98283672842291     -1.00734931760080
  H          -1.54460393023595      2.17280147208476      0.69391603001409
  F           1.23945435277907      0.47531135494007      3.04192422792252
  F          -0.77187352645159      1.13316755200300      2.61078104412568
  H          -0.33118674768984     -0.73562384870004      3.09746627586423
  C           0.10156483742389     -1.52079046169943     -1.99473772067839
  H          -1.68510699577225     -2.19151045893828     -1.00563089674757
  H          -0.18290516773682     -2.70584838690883     -0.21411340274996
  H          -0.41096819989430     -0.73512984054174     -2.54386827989479
  H           0.17384788839776     -2.39422415800663     -2.63727715602620
  H           1.10752589622564     -1.18569021257879     -1.75254298413793
  N           3.25784211555571      0.63020042161491     -0.68060393748363
