24
Coordinates from ORCA-job NEB_reactant E -41.247908679450
  C           1.52520228775299     -0.11108875768095     -0.25911028432395
  C           1.42392162741878      0.91347623351615     -1.11223303286554
  C           1.62656307550712      0.04666600979272      1.21728649839818
  H           1.54784256384066     -1.12385600100530     -0.62315082281872
  C           1.36971028241315      0.65492211177949     -2.59400991108725
  C           2.26612445461207      4.16411256220038     -3.49399920842677
  C           2.36374996694407      3.66715382896658     -2.26247870754322
  C           1.18852026891224      3.30597460846074     -1.40886705570148
  O           1.41230262166776      2.17387609981974     -0.59420615440423
  C           3.39790670665948      4.51395832395078     -4.25680485902597
  H           1.30998217925222      4.32740440415741     -3.97560455769701
  H           3.33059310976290      3.51793251475323     -1.79986451925787
  H           0.27344297067102      3.20113562595888     -2.00582291998683
  H           1.02665534167775      4.11452344890360     -0.68342240700986
  F           0.65025798449558     -0.65959512965297      1.85470663052471
  F           2.79954485935630     -0.46487735268152      1.68906722159400
  H           1.55858617873871      1.09142475676188      1.54924401387420
  C           2.77127130069483      0.42131987597027     -3.16501159028325
  H           0.89565118210052      1.47892501302063     -3.12589204209077
  H           0.76809011356031     -0.23947132040037     -2.76071245336685
  H           3.39951201496049      1.29918746056739     -3.03719848194954
  H           2.70670406309357      0.19983402510429     -4.22730677380635
  H           3.24629647610881     -0.41604192741801     -2.66158101431561
  N           4.31326836979868      4.79060358515494     -4.88862756843003
