24
Coordinates from ORCA-job NEB_product E -41.254936041360
  C           2.51567912314778      1.54424430580322     -1.06218666531684
  C           1.07475281570196      1.17497472778317     -1.44429262859463
  C           2.71264942979035      1.17867093987630      0.41511868654287
  H           3.22909821273702      0.94276042189613     -1.63337266164323
  C           0.91206205020083     -0.20181048225431     -2.03755039802510
  C           2.75020690047785      3.04854008372366     -1.31937012493811
  C           2.55971713498735      3.36165028882596     -2.78285651409325
  C           1.64031968578210      4.18994785342959     -3.23647790273092
  O           0.16498757945666      1.94144093150955     -1.28927180400268
  C           4.09275498666034      3.44299278356239     -0.94993322764232
  H           2.03294042763198      3.62173756968084     -0.72015217250336
  H           3.24576331212941      2.86035396636897     -3.45345171750812
  H           1.53071231607019      4.38989313320921     -4.28841583459244
  H           0.95332608776144      4.69302479644539     -2.57698771663760
  F           4.02577403896968      1.14616348162633      0.73666778752453
  F           2.13650830837988      2.08261336773455      1.23320238459550
  H           2.29214653915563      0.18919504358515      0.66227617885493
  C           1.25280380977030     -0.14659875526755     -3.53051206779974
  H          -0.12628377849876     -0.51315634005518     -1.91762409767458
  H           1.56644258635702     -0.91620045596087     -1.53563002486496
  H           0.62497043836115      0.58610050988924     -4.03124446237585
  H           1.08082579206358     -1.11940114517189     -3.98299725528414
  H           2.29381796684641      0.12564538150688     -3.68654325508942
  N           5.16162423605985      3.76711759225324     -0.71149450620054
