23
Coordinates from ORCA-job NEB E -39.646943773270
  C           0.61651005119542      1.46308332515693     -1.23768913481048
  C          -0.71565590265680      2.16806310082000     -1.24136149067587
  N           0.22603122920294      0.66481734263806     -2.17665717554815
  H           1.57065249955152      1.56566437626477     -0.77144709815191
  O          -0.66190079422549      3.43668302101625     -1.70849852049097
  C          -0.05441154319373     -0.94464712901624      0.82953796765353
  C          -0.50052114424247      0.28058159376515      1.06398628702740
  C          -1.74835531173377      0.84512956303950      0.45896185075148
  O          -1.54569252926500      2.12344415173087     -0.15976646263224
  C           1.18670666922689     -1.52858823016485      1.43300068092857
  H          -0.59996707507287     -1.59016820422731      0.15344952124353
  H           0.02656502346268      0.94817875348640      1.73243827355818
  H          -2.49019625021227      1.06249189439528      1.23204526777282
  H          -2.17909582274335      0.15165869662605     -0.27167771229104
  O           0.62690924367238     -0.25476123750519     -2.82193292052525
  O          -1.10372994858216      1.19668761952210     -2.28975650904204
  H          -1.54677101084206      3.82627742451892     -1.68145936879267
  C           1.38858356373004     -2.98431584859094      1.03143988540787
  H           1.13448122330902     -1.44713777591800      2.52199615029736
  H           2.05108867305847     -0.94060511181642      1.11061970785552
  H           0.55181673173720     -3.59247854649012      1.36758463308548
  H           2.29939713719859     -3.37926090317284      1.47496747669547
  H           1.46755528742484     -3.07079787607839     -0.04978130931657
