18
Coordinates from ORCA-job NEB E -29.995735017910
  C           1.45424658730282      0.98697385765023      0.69431801789668
  C           0.25389743554261      1.28949722778250      0.16236800331131
  C           2.07174059680197     -0.35357198966511      0.73382217336205
  H           1.95206234871959      1.79921037374455      1.19595648358229
  C          -0.40662738375323      2.40793260151179      0.76245939428416
  C          -0.89687409295469     -2.09029287784588     -0.90622873109682
  C          -1.57620096389748     -0.99640348043562     -0.52887613967761
  C          -1.54893766840838      0.36481578395873     -1.12053297987458
  O          -0.22426922762165      0.85803346576032     -1.05807448170262
  Br         -0.20804421777389     -3.20503166896018      0.50900386986354
  H          -0.83282586497793     -2.64766892086599     -1.82143516233329
  H          -1.69218510667754     -0.92474936513067      0.54422289169217
  H          -2.20063617393162      1.06914380863304     -0.58947815002279
  H          -1.80912401937618      0.35320322720836     -2.18255450120221
  H           1.36896029688330     -1.00195215055079      1.26277528628578
  H           3.01499035197350     -0.40366537331395      1.27996754225219
  H           2.20185864613233     -0.78084203336789     -0.25822604730381
  N          -0.92203154398349      3.27536751388657      1.32051253068358
