18
Coordinates from ORCA-job NEB_reactant E -30.040432687810
  C           1.79924396280175      0.04443353021842      0.04113214252316
  C           1.15720561129433     -1.13042143701316     -0.05174263680041
  C           2.17613199470396      0.88250230118243     -1.12712637071220
  H           2.05812984366321      0.40683408215881      1.02488979631779
  C           0.84885669724765     -1.84551156754734      1.13315655343344
  C           0.06598649291332     -4.43243831838571     -3.19160465080228
  C          -0.20895597152051     -3.25846301729233     -2.65431668180246
  C           0.13336843254251     -2.90459538827075     -1.24224030110743
  O           0.79337033686205     -1.65435956465162     -1.26431786104020
  Br         -0.40042216082625     -4.87171016417227     -4.96533032663405
  H           0.55392145876778     -5.23898766903969     -2.66719543358230
  H          -0.69199789280617     -2.47714138488290     -3.22285454526561
  H           0.77135243405535     -3.67576557725989     -0.78829689021324
  H          -0.79288632196191     -2.83284814113466     -0.64940384381805
  H           1.88217591726541      0.39900224267307     -2.05401110982350
  H           3.25272815344066      1.05182115434762     -1.13394395818296
  H           1.69239242953495      1.85700783717636     -1.05978436156615
  N           0.59819858202190     -2.42175891810638      2.09339047907643
