18
Coordinates from ORCA-job NEB_product E -30.040500853700
  C           1.32241766923626     -1.19614317496086     -0.80074690175146
  C           2.58744820861704     -1.54037828298978     -0.01911456659387
  C           1.64027426678717     -0.16622642379750     -1.87905338406757
  H           0.62408947004926     -0.75917535831952     -0.07049243979064
  C           2.40173626463505     -2.65262339207227      0.90352769675926
  C           0.65708511170482     -2.47335632939773     -1.33142223195292
  C          -0.56289840698474     -2.21909359026704     -2.14665753053338
  C          -1.76018373193097     -2.65874133833338     -1.80507030376176
  O           3.62947336987257     -0.95163249789833     -0.10671502794517
  Br          1.97163479774512     -3.47308602736730     -2.44644560562508
  H           0.42899304816870     -3.15175438283857     -0.50491305491588
  H          -0.41182847096667     -1.66615154089411     -3.06237615032169
  H          -1.92343344430101     -3.22850589963783     -0.90451708856776
  H          -2.62659101652612     -2.46379034629447     -2.41224396546012
  H           0.72944306612115      0.27558989334370     -2.27357426938448
  H           2.19830164469574     -0.62718065090017     -2.69174440795055
  H           2.25581736763590      0.62465766495458     -1.45638478978587
  N           2.24412078544074     -3.52350832232942      1.62914402164895
