17
Coordinates from ORCA-job NEB E -38.251810173450
  C           1.06740840971402      0.02903684894194     -0.33239240686996
  C           0.47209950334880      1.27996768095535     -0.61354769485410
  C           0.82574912507558     -1.12646196212994     -1.27594031239593
  H           2.12519725320959      0.06302809051007     -0.07931798370200
  H           1.02421743031666      2.17681995875047     -0.31738690216205
  C           0.19776727027251     -0.33320117306507      1.32924719480559
  C          -1.16623461455195     -0.26113107467904      1.02080770310018
  C          -1.66929594102022      0.97223124266611      0.53809139996505
  O          -0.79571110218211      1.38223659413013     -0.79829679137448
  F           0.67418804319297     -1.51296300696181      1.76253941847942
  H           0.66780512037676      0.46366184787227      1.90314168409994
  H          -1.67366075277273     -1.18112415226955      0.77856359168985
  H          -1.45996275420051      1.85400612182615      1.13606121048865
  H          -2.68199827435004      0.95741668724674      0.15601451253410
  Cl          1.48269739204056     -2.66424272879268     -0.67064202718899
  Cl         -0.84681065546157     -1.37144006379382     -1.76498461716924
  Cl          1.75654454699167     -0.72784091120731     -2.77195797944603
