17
Coordinates from ORCA-job NEB_product E -38.295110675360
  C           1.73646144124320     -0.27943988795889      1.66717730018814
  C           1.06186286394005      0.90078658001609      0.97670510393084
  C           1.47741628759048     -1.56330754789883      0.88378394386243
  H           2.81868225386846     -0.08693236087875      1.63282525560779
  H           1.06148572942997      0.82399096446669     -0.12295022311302
  C           1.35297768379480     -0.31448770708664      3.16644655472280
  C           0.04110922941329     -0.97272076267409      3.47017286842593
  C          -1.08614343495740     -0.29991819740615      3.60110497538564
  O           0.59681924052705      1.83929031213819      1.54800578713580
  F           2.36495381157990     -0.94631314733424      3.85818172190438
  H           1.34969148984443      0.72701681836431      3.51598148465212
  H           0.08616335447012     -2.04393738292400      3.60055770823739
  H          -1.12476092048334      0.76971707986220      3.47825267025286
  H          -2.01523354045439     -0.79727965296404      3.81653908150087
  Cl         -0.26373412856011     -1.75021144070428      0.55113136796687
  Cl          2.32232426052997     -1.47129163122303     -0.69062869536343
  Cl          2.06562437822350     -3.00516203579454      1.72791309470259
