24
Coordinates from ORCA-job P E -40.364863046490
  C          -1.45452761860582      0.44480125016165     -2.39484891893665
  C          -0.08241239349900     -1.59542155749608     -1.20118855584802
  C          -1.38933947687738     -1.90677460662462     -1.84907856290440
  C          -2.05027717178428     -0.93269237077682     -2.45449546172857
  C          -1.07980586601349      0.75617634172681     -0.93633543495450
  C          -0.16792459371620     -0.32103158011763     -0.31600119172670
  H          -1.75901042158139     -2.91897473950460     -1.82197133399008
  H          -2.99620760345696     -1.07110139786158     -2.95123581949230
  C          -2.42362436028235      1.48591294908115     -2.92179279475619
  H           0.27232238071722     -2.43244420829749     -0.59886360493403
  H          -0.56124860122132      0.50017475069029     -3.02999035731376
  H           0.65399910489975     -1.41283431908214     -1.98960686718203
  H          -2.00557096042097      0.81822660302009     -0.36304652846472
  H          -0.60931587635366     -0.61937568975734      0.64120543895728
  H          -0.58350161863512      1.72402719368695     -0.86766095873559
  N           1.12372841235194      0.25117306651382      0.02609811838866
  F          -2.76484813355401      1.26172762544904     -4.20242873886962
  F          -3.57086061220891      1.53382423044907     -2.22895574102566
  F          -1.90699950210039      2.72701226079225     -2.88575746258735
  C           1.98263698654943      0.67604556907178     -1.06091181793462
  H           1.63220268607916     -0.38910155623146      0.62627041304729
  H           1.44707061609372      1.37564129797566     -1.69998125621189
  H           2.36769603665175     -0.14232190100868     -1.68646777823040
  H           2.83523858696828      1.19780078813988     -0.62807478456616
