24
Coordinates from ORCA-job R E -40.281715554440
  C          -1.38431517182181     -0.07104471765219     -2.84708000977441
  C          -0.44486336257720     -2.63680260496286     -1.59719829460834
  C          -1.70410794776952     -2.32829960045093     -1.88897068489547
  C          -2.16368906646557     -1.03716571199544     -2.36329234057534
  C          -0.86395942006401      1.26147570178733      0.19837497653366
  C           0.04509312956835      0.29443969510915      0.21748148902169
  H          -2.48146534328331     -3.06921422287589     -1.75742512183108
  H          -3.23251625108060     -0.87198671916348     -2.31785117939435
  C          -1.93292519842797      1.22273271690142     -3.34293178324834
  H          -0.17729802750395     -3.61822051807018     -1.24481968600079
  H          -0.31529193048823     -0.16341342783808     -2.94471142047459
  H           0.35290847254663     -1.91967261455858     -1.68086730156822
  H          -1.81059413769898      1.12497063631641      0.68716803495211
  H          -0.15927035220874     -0.63346742472679      0.73714944859955
  H          -0.71281847815398      2.20087572781318     -0.29971682789754
  N           1.26127894776944      0.27969381085002     -0.44676229333412
  F          -2.02961611802712      1.24964226555176     -4.69235774137923
  F          -3.15818756267134      1.50637462481694     -2.88131106957187
  F          -1.14828168152585      2.26590482834706     -3.01929881802938
  C           1.77997477122327      1.51101760951853     -1.00092608802022
  H           1.96727173783980     -0.27073037315040      0.02329521742344
  H           1.96044073217810      2.27878933956499     -0.23857456474612
  H           1.06803810757977      1.90744001281205     -1.72302980497081
  H           2.71639415106282      1.29753096605596     -1.51411413621024
