24
Coordinates from ORCA-job TS E -40.268844060560
  C          -0.93437349410117      0.18343544925182     -1.03220478581500
  C           0.36975557140416     -2.16601437024884     -0.03062948017895
  C          -0.94864649598021     -2.13650995399356     -0.32058121164043
  C          -1.60145645269987     -1.01465340225847     -0.87218624160637
  C          -0.47340834865090      0.81097106177727      0.88788864227112
  C           0.42876206766085     -0.04279201661919      1.48103897846364
  H          -1.57424789874785     -2.96011620065106     -0.00451049400678
  H          -2.68098131211360     -1.01433608361015     -0.89952321722315
  C          -1.70629159399062      1.34367313361433     -1.57529758469968
  H           0.79949904146833     -3.00184417497481      0.49596639470795
  H           0.09576574509401      0.19819918878999     -1.35230883790440
  H           1.06736103930213     -1.47722765031120     -0.46729195396019
  H          -1.48799949176919      0.77538084746282      1.24494870230239
  H           0.07990491943147     -0.83913374322972      2.11853735949499
  H          -0.13645683228941      1.78124301277029      0.56443989310988
  N           1.78343115297529      0.13316160760783      1.49940648291515
  F          -2.08957902592800      1.15527175268417     -2.85693413588943
  F          -2.83111486287222      1.60606025372735     -0.89158901369523
  F          -0.99242080835307      2.48651736895364     -1.58128868599291
  C           2.48376509711699      1.02632774073281      0.61179070281649
  H           2.32381562892653     -0.65559551236315      1.81792788878533
  H           1.98703483082836      1.99479961151225      0.59499756047873
  H           2.54016483980472      0.64817217964083     -0.41569081440749
  H           3.49771668348328      1.16500989973476      0.98309385167432
