17
Coordinates from ORCA-job NEB_product E -40.964584356110
  C           1.76023292772966     -0.93601236136482     -1.28087075169947
  C           1.09629918546904     -1.15475353591414      0.06155411586934
  C           1.51048263816828      0.49929486873606     -1.75257286656669
  H           2.84243669510255     -1.03850493881012     -1.14178958905590
  Br          2.01879406847131     -2.55915272169284      1.07204646558852
  C           1.27512782642124     -2.07696873000558     -2.20669302817218
  C           0.00077529121870     -1.82586698958589     -2.93188516483353
  C          -1.10983360091462     -2.49049783126641     -2.66726978471107
  O           0.13793311269994     -0.65416905800486      0.52463421675166
  I           2.82179662920366     -2.62505584857772     -3.64598237145277
  H           1.18061940818278     -2.97805934400542     -1.59594462506107
  H           0.03667919078060     -1.09339732727695     -3.72458526669004
  H          -1.16029552244868     -3.23697161998922     -1.89092789937335
  H          -2.01778569741901     -2.30522679558612     -3.21287080145374
  Cl         -0.20779268497744      0.93498837405836     -1.84995218010879
  Cl          2.28526466203152      1.59209734502218     -0.55481791717483
  Cl          2.26446587028045      0.79485651426348     -3.32927255185608
