17
Coordinates from ORCA-job NEB_reactant E -40.952770139990
  C           1.60203924486853      0.08878715578817      0.09576610231677
  C           0.93402911058949     -1.00289447200055     -0.29642268768826
  C           2.04971209137438      1.11538044009132     -0.87614965493095
  H           1.83048451398365      0.24927959885065      1.13459883113183
  Br          0.40744016848397     -2.26437221756812      1.02959868598878
  C           0.15316637321271     -3.28457797779931     -4.27340430470307
  C          -0.23584813594631     -2.33584779950873     -3.44429461057436
  C          -0.04183626317428     -2.42280276165567     -1.96266121307976
  O           0.62270908812928     -1.23355166634840     -1.55929671893025
  I          -0.14180812439129     -3.18284497374861     -6.34527512919509
  H           0.63116644344824     -4.19531331331482     -3.95257163911554
  H          -0.70296566478730     -1.42660580656861     -3.79200199528034
  H           0.55352409737126     -3.30393827610741     -1.69311727801173
  H          -1.01985213069773     -2.48715637473622     -1.46351280758392
  Cl          0.65875702289601      1.82880817277955     -1.74958668705192
  Cl          2.91419059789379      2.41856763342294     -0.04863619449464
  Cl          3.14189156674560      0.40728263842385     -2.10793269879755
