17
Coordinates from ORCA-job NEB_product E -30.248810142270
  C           1.49496489987037     -1.63707881079801      0.34785715734382
  C           0.83417238500803     -0.45327143516542      0.99089901862976
  C           1.22315186113113     -1.64379084187561     -1.15279853364462
  H           2.57234788119535     -1.55740896757419      0.53581177406764
  F           1.21449040912411     -0.34275923835849      2.30135600928118
  C           0.99395198585077     -2.90183089950880      1.07902646160354
  C          -0.46868919451835     -3.14083335885998      0.90575537590638
  C          -1.32630379427354     -3.12215673208895      1.90928374739828
  O           0.07830576039349      0.33240896727415      0.54739126372297
  Cl          1.89320029684140     -4.32859643990209      0.44943957249990
  H           1.24961971958300     -2.83510215086766      2.14024266908840
  H          -0.79388309033315     -3.34991416375154     -0.10254664209089
  H          -1.01452404233062     -2.92554406852884      2.92210574458404
  H          -2.37723299601971     -3.29399555083725      1.75661286191258
  H           0.16034712696443     -1.53269424407515     -1.34913379188658
  H           1.57624521677442     -2.57345049373316     -1.58977672410615
  H           1.74203557473887     -0.81458157134898     -1.62652596431025
