17
Coordinates from ORCA-job NEB E -29.939492912270
  C           0.10707682649178     -1.32485594794749     -1.03322007403722
  C          -0.31638027446999     -0.06925179593933     -1.25549969766400
  I           0.09550534088053     -2.34803190570373      0.82689074360524
  H           0.73400535710186     -1.81650065741759     -1.75207537732645
  N          -0.02493317867938      0.56514675572309     -2.43558946986641
  C           0.98258163538341      0.62123235098855      1.54593357516696
  C          -0.26051969094077     -0.14517129686589      1.66384285999373
  C          -1.42764022602400      0.34970361742894      0.82458895395681
  O          -1.07103043409729      0.74211246507472     -0.48232398715077
  C           2.10067124367897      0.16768161134793      0.92834855708165
  H           0.94329588172894      1.65479540611577      1.85978357901763
  H          -0.59394799402742     -0.35550966147728      2.68335815275266
  H          -1.83467448043992      1.26426841477617      1.27385664714904
  H          -2.23006768022259     -0.40136945392383      0.78945273546298
  H          -0.61769681433653      1.34086597832904     -2.67860651324714
  H           0.35245802359100      0.01903788577967     -3.18836394728528
  N           3.06129646438140     -0.26415376628875      0.42962326239057
