17
Coordinates from ORCA-job NEB_reactant E -30.037484362720
  C           2.08525926915493      0.22178654600280      0.51040368108008
  C           1.35727910583547      1.34326678387497      0.50331526519233
  I           2.13778520621171     -1.29650664993901      1.96166566749586
  H           2.70640281342437     -0.00311790684138     -0.33652573854568
  N           1.42673761793212      2.21148982665238     -0.57742757788395
  C           3.07616692300403      1.71128150289599      3.98607550218076
  C           2.29021383318665      2.23279455849865      3.04642521892253
  C           0.87517323385728      1.81343113286267      2.81644182093469
  O           0.51152373518682      1.84976502647580      1.44548737641920
  C           4.39877156070186      2.15194618410597      4.18457334948833
  H           2.73834818792160      0.92307113669942      4.64651009596391
  H           2.65769271400259      3.00976000236057      2.38797858161763
  H           0.19803439275921      2.54060212772583      3.28301986115885
  H           0.67321018984117      0.83166072075773      3.25872069138388
  H           0.66914089419195      2.87771929984123     -0.59647178324981
  H           1.63469744182532      1.79904033984317     -1.47246324732278
  N           5.47406288096289      2.51180936818320      4.35377123516414
