19
Coordinates from ORCA-job TS E -35.920746002910
  C          -0.38649642620411      0.33393819074451     -0.94762424253575
  C           0.96815715842540     -1.83056990961454      0.34462650142890
  C          -0.37874894752140     -1.82237775830139      0.16574683386017
  C          -1.04677042778490     -0.76685957650545     -0.48256375615249
  C           0.50532647006447      1.03313781415853      1.07864826167872
  C           1.26477209408942      0.03829103109459      1.58985321503104
  H          -0.99177702970831     -2.54261569218164      0.68805313728163
  H          -2.12751314286609     -0.75113510520004     -0.43021460632438
  C          -1.12421851968051      1.46911577383225     -1.54333750607850
  H           1.42779485036987     -2.59579714209829      0.94875077143263
  H           0.64587962727041      0.26952461622794     -1.25655386716062
  H           1.63484861969544     -1.32750295424644     -0.33358881011901
  H          -0.48577891184791      1.18774472382762      1.46037010479373
  H           0.99338240236872     -0.58731823620875      2.42528053821672
  H           0.97872323679473      1.83655100947003      0.54290287612543
  F           2.59658836630754      0.04552328303603      1.37486914768072
  Br         -2.64056064266900      2.04482867695607     -0.45270258415035
  Br          0.02197496801202      3.01947999292686     -1.83926584866735
  Br         -1.85558374511581      0.94604126208211     -3.33325016634123
