17
Coordinates from ORCA-job NEB_reactant E -33.747027256820
  C           1.61273292257207     -0.00780839183455      0.00081700856783
  C           1.31088171476379      0.53925474466970     -1.17411611284536
  H           0.84022515993376     -0.29075571191761      0.69104865702489
  H           2.63741611149793     -0.19293461260185      0.26470343516758
  N           2.41438929687269      0.85646888817356     -2.08403341520152
  C           0.95017070342740      3.93808439828679     -2.80376815893628
  C           0.31010875956428      3.08568071621119     -2.00598405739393
  C          -0.27049178764562      1.79142444367484     -2.47737228865385
  O           0.05115513020698      0.70266297581510     -1.60628513773334
  C           1.47367680295714      5.15934086620271     -2.33356182413505
  H           1.09672621979214      3.73617611244269     -3.85716528580052
  H           0.19268339773358      3.29757799286406     -0.95034240920724
  H           0.03608573028448      1.56897526970912     -3.50482540494885
  H          -1.36439428407151      1.83427607954309     -2.43199531365618
  O           2.17540217609021      0.86212560801573     -3.27272175272513
  O           3.49409747185914      1.07775426726203     -1.58705724518694
  N           1.89513447416153      6.15619635348338     -1.95694069433612
