73
Coordinates from ORCA-job A2R E -104.455810521370
  Ru         -0.55906235003478      2.20036798588026     -0.21489723505444
  H          -0.53678739174528      0.72750667339824     -0.69427916988839
  N           0.63809527387037      1.56997773005878      1.35683719346200
  C           1.91616779838827      1.20497345860360      1.14335790064879
  C           0.15712310173865      1.49498825676674      2.61179440705894
  C           2.74239560263339      0.77478813352028      2.17225463034343
  C           0.92738060006370      1.05131458660514      3.67480357153289
  C           2.24644673216544      0.68701546748043      3.46030997905111
  H           3.75630589061390      0.48449417202256      1.94985152494780
  H           0.49296450941013      1.00052840724402      4.66140880744924
  H           2.86645159749614      0.34337261577719      4.27296883236531
  P           1.47180449676975      2.48036421403188     -1.23574235822725
  C           1.79075327614862      1.91625377608027     -3.01951472287413
  C           2.45693760493357      4.08206485575315     -0.90581905087858
  P          -2.17726384844517      1.79545169504161      1.25488852861560
  C          -3.64708559659943      2.88279434696801      1.61886439547453
  C          -3.06860967797872      0.17786560489990      1.54713757571022
  C           2.42763420874980      1.23430350878865     -0.26146828375459
  H           2.18873723051537      0.26804517511618     -0.72249187794794
  H           3.51130831610191      1.37104129408374     -0.28956419835872
  C          -1.25531330502512      1.94559729075981      2.84854302583771
  H          -1.71735425219079      1.39969658203429      3.67703119222782
  H          -1.25030027140405      3.01883372819816      3.08495946651013
  C          -1.61241656624948      2.74583245622866     -1.62930371681635
  O          -2.26146788242833      3.09955723978882     -2.51703731154979
  H          -0.56050908210396      3.64257594775625      0.37443100810526
  C           3.19500035538476      1.36772871381226     -3.27665059171210
  C           0.78832383070572      0.79827583364206     -3.30986772461551
  C           1.47153265310065      3.07647104345412     -3.96340278198904
  H           3.36939631667056      0.45688787065643     -2.70900187542041
  H           3.28252705476911      1.11959421828461     -4.33438489513005
  H           3.97499845987206      2.08179331372386     -3.03902096124365
  H          -0.23212740796876      1.16848033697593     -3.23153053574869
  H           0.94434387794485      0.41651678406059     -4.31848599686641
  H           0.90051027650062     -0.02940521452589     -2.61440193371676
  H           0.53403033041471      3.54723932945075     -3.66435959734215
  H           2.26090439098669      3.82337300155090     -3.97309005162506
  H           1.35465889002928      2.70383152451212     -4.98065907112802
  C           2.56395261472296      4.20513195978503      0.61792008299744
  C           3.86890995631176      4.14111472677917     -1.48430540264919
  C           1.62554524103864      5.25802546680551     -1.42182471162059
  H           3.24281879983616      3.46486803133919      1.03827236816961
  H           2.94188838127245      5.19262339746592      0.88144385193393
  H           1.58287703329663      4.09035249315385      1.07765196393132
  H           3.86294360200779      4.19060751286416     -2.56916538431272
  H           4.35764980683706      5.04464746444785     -1.11878179665194
  H           4.46956839833612      3.29102899639880     -1.16664987223577
  H           1.67855253238884      5.35006486896927     -2.50212098477595
  H           0.58205329024700      5.12444104443918     -1.13635944174485
  H           1.98488881518913      6.19032932211576     -0.98757696848444
  F          -2.11505177473540     -0.75924915851045      1.86294896954559
  H          -3.77475405112795      0.21920053628285      2.38644520456852
  H          -3.57444971486614     -0.15411106516508      0.63398176586504
  F          -4.69904447127208      2.42056548289366      0.86861094276898
  H          -3.95855449497074      2.84072328880214      2.67146203491830
  H          -3.44541147815828      3.91486467063944      1.31233516005693
  C           1.78964573965392     -2.15448258802397      0.73169995283961
  O           2.96410085876796     -1.85418428334686      0.81276234472973
  C           1.13576874714297     -2.35471910619009     -0.58327241448789
  C          -0.24773007536510     -2.34159789090704     -0.75273677626706
  C          -0.79140696836490     -2.52638169332852     -2.01047390311205
  C           0.02958204429814     -2.74038907777258     -3.10589870018194
  C           1.40669750355338     -2.75513615011153     -2.94768094704246
  C           1.95507856132718     -2.55396702864513     -1.69660317813979
  C           0.93498141854547     -2.34746713707605      1.95508043339128
  H          -0.89874145254617     -2.16531455562805      0.08737513440416
  H          -1.86295902752630     -2.49989331384803     -2.13916005386557
  H          -0.40346342737258     -2.88844091477764     -4.08402294414682
  H           2.04992627709464     -2.91674459001663     -3.80018195133384
  H           3.02622297708840     -2.55690612839898     -1.55174553460289
  H           0.40961276239986     -3.29806815945990      1.90693065013748
  H           0.19411499619878     -1.55255594455384      2.00766929908404
  H           1.55765153494627     -2.31097243590579      2.84560270886110
