73
Coordinates from ORCA-job A3R E -104.421329051720
  Ru          2.11168225626157      3.34046996137069     -0.17464867472928
  H           0.75367805067351      2.15979952020636     -0.28947414106442
  N           2.50265635107663      2.25594553750717      1.58056339989074
  C           2.84501270954659      0.93213299114464      1.43450905315632
  C           2.26682338208734      2.75607286159890      2.79894150844198
  C           2.79989663042679      0.08675635900453      2.58327203426563
  C           2.24819409787436      1.97799070075456      3.93588940748315
  C           2.50051815090387      0.60202780177458      3.80713215917566
  H           3.01887609849940     -0.96184156064345      2.45216201324829
  H           2.05140083542979      2.41851874216637      4.89941591928166
  H           2.46867927326614     -0.03139397610814      4.68115664339289
  P           3.53690950810581      1.71227979610198     -1.03603169902919
  C           3.22608947035827      0.95332945326998     -2.74648262714284
  C           5.40468454257033      2.10341458795939     -0.85158960596406
  P           1.11796435121661      4.74714854651078      1.34869187470199
  C           1.57181084532164      6.55259473721784      1.26956195512079
  C          -0.56765670058902      4.96720016558013      2.14359550689333
  C           3.18063415457243      0.45791414432814      0.16689895373839
  H           1.22218836986954      0.01846786662024     -0.00448598802557
  H           3.55322340865884     -0.55154185442204      0.06108159582137
  C           2.04921219943889      4.24475938796917      2.86514854949978
  H           1.55025464557221      4.54671054834675      3.78999763085515
  H           3.02646870349103      4.74053459014943      2.80568436111122
  C           1.78146577198104      4.27092743596948     -1.73632907672615
  O           1.63624047569087      4.88363885607216     -2.69996291171145
  H           3.30162464823745      4.25976246111642      0.05983182402690
  C           3.61602453532816     -0.52188669166112     -2.81778150223116
  C           1.72264961648682      1.06247434110134     -3.01511064256016
  C           3.94333916645784      1.76672194194273     -3.82231074941106
  H           3.00504358604047     -1.11117880548294     -2.13806506112635
  H           3.43867204957782     -0.88852554784305     -3.82851119737935
  H           4.66192055035296     -0.68482804137534     -2.57907499808805
  H           1.38420793503533      2.09794850737286     -2.94027418503904
  H           1.50384522313288      0.71469806748547     -4.02420802817586
  H           1.14997998707559      0.44716639628452     -2.32711044849380
  H           3.75378196058832      2.82951916495626     -3.67523977718564
  H           5.01471911322755      1.58897082321868     -3.82124020569660
  H           3.56391363246476      1.48733484265659     -4.80498892423543
  C           5.61998425891927      2.36256129455948      0.64227002252809
  C           6.30516054593852      0.93899986921776     -1.25779352929048
  C           5.76804884879720      3.37815787210942     -1.61279284014261
  H           5.42130923258913      1.46865584466342      1.23071630277909
  H           6.65129416271017      2.66373284293756      0.82121098517162
  H           4.96506757877631      3.16257982665725      0.98711424778833
  H           6.30403912625573      0.77441870923077     -2.33159934338128
  H           7.33067338175222      1.15558907916738     -0.95840123921002
  H           5.99620417313071      0.02379646021110     -0.75522349892971
  H           5.89837725289717      3.19950131054970     -2.67456246430747
  H           4.98529753205691      4.12603895217580     -1.47653780029436
  H           6.70215574181221      3.78402703601634     -1.22628926332089
  F          -1.54685436824709      4.99804674244883      1.19140983612372
  H          -0.78685254703506      4.12441996505168      2.81148258665418
  H          -0.61906109768242      5.91384399147488      2.69631437519841
  F           0.58329306194720      7.22544398669445      0.60514579412335
  H           1.65508631437764      7.00062705664592      2.27020134334282
  H           2.50253052748018      6.67888847775963      0.70327812173232
  C          -0.12847097141820      1.42324547949814     -0.20524297949275
  O           0.31777996057719      0.10857927467332     -0.37877217072268
  C          -1.11463072619231      1.79076912297353     -1.29029942226320
  C          -1.32553852818847      3.12135494069040     -1.62478494493605
  C          -2.25292796208012      3.45952274065752     -2.59180951873489
  C          -2.97667411911993      2.46875135490829     -3.23476610893480
  C          -2.77069742941507      1.14105639428368     -2.90346115242749
  C          -1.84569623057658      0.80150702648439     -1.93233613709087
  C          -0.80249221278584      1.58399766931744      1.16343715782330
  H          -0.76081231877547      3.90375791519875     -1.12757826026282
  H          -2.40609113330743      4.49759644286608     -2.84493776532026
  H          -3.69807147007479      2.73266013854212     -3.99399535104643
  H          -3.33224099296535      0.36453944508210     -3.40198727791156
  H          -1.67429068329513     -0.23054041917912     -1.66885181670477
  H          -1.52950799644226      0.78096936579556      1.27522954631048
  H          -1.32960247834423      2.53178025293324      1.21055589172887
  H          -0.08060802038242      1.50882887748117      1.97714272733109
