73
Coordinates from ORCA-job A3S E -104.419167325570
  Ru          1.98103794504713      3.46729490434786     -0.31351166684901
  H           0.49027090978378      2.36271933527732     -0.14675962260405
  N           2.36223527664090      2.52951112360228      1.52461783071649
  C           2.72189686884195      1.20067397793754      1.47387001497062
  C           2.07486222771068      3.09096950124699      2.70507537647955
  C           2.77522231608763      0.45395578031071      2.68585948289610
  C           2.14383717550751      2.40364554091836      3.89828183784469
  C           2.49986656502899      1.04906454567000      3.87799505866372
  H           3.04836587593805     -0.58858062394821      2.62745457049780
  H           1.91524230825411      2.90189128521524      4.82601146137282
  H           2.55047816014159      0.49270753681282      4.80191661058438
  P           3.29780097805244      1.71497766870129     -1.09701110506911
  C           2.89598227484676      0.83012003667120     -2.73048104053949
  C           5.18975124716226      2.03598952611573     -1.01554099055538
  P           1.24287169836696      5.13778911184997      1.03674876198987
  C           2.31321794182146      6.66849361938206      1.01674908919085
  C          -0.33244510812109      6.14681811179411      1.20919959630687
  C           2.97282817021599      0.59462288083427      0.23899116560228
  H           1.09936040823132      0.17519320374942     -0.07430218647256
  H           3.37817321189305     -0.40948571613354      0.23081186853598
  C           1.68122324248876      4.55063222449251      2.73661083361656
  H           0.85191993951281      4.69285023968651      3.43469264661879
  H           2.53298119731643      5.14450641819711      3.09103274130562
  C           1.54992271627655      4.26536298175053     -1.92392831968193
  O           1.30024454676480      4.81453500937433     -2.90441094917682
  H           3.25617264550961      4.28152498218949     -0.29486577755762
  C           3.14861859572255     -0.67342021508617     -2.64263353093113
  C           1.41031441820068      1.06118583843952     -3.02363401816302
  C           3.67436557560080      1.45499113968587     -3.88734973467584
  H           2.48651114262982     -1.12937920026724     -1.90999980803589
  H           2.94284947441225     -1.13013322532194     -3.61033756542258
  H           4.17619018017441     -0.89943311817740     -2.37435168519207
  H           1.18699014874434      2.12873963724386     -3.05598860513438
  H           1.16077847499657      0.63665374639361     -3.99579398650918
  H           0.77611273303220      0.58237718046840     -2.28368876535197
  H           3.57092345982224      2.53892210463334     -3.86289653531358
  H           4.72742100807907      1.19244681964103     -3.86601180392005
  H           3.26695005163198      1.09731896116419     -4.83298036156165
  C           5.47536792455031      2.43191103829465      0.43691698105449
  C           6.01657586922509      0.78834280140926     -1.32195761308299
  C           5.59412593566737      3.20516776378795     -1.91405496446010
  H           5.27784628685206      1.60687777363090      1.11856555436852
  H           6.52182357687249      2.71488401148334      0.54338542716560
  H           4.85903906757218      3.28249573739105      0.73160772480713
  H           5.96006781472932      0.50009583753161     -2.36750624319951
  H           7.06333422679994      0.98510611868667     -1.09016599919791
  H           5.68960823910808     -0.04750594187954     -0.70566487325332
  H           5.69613559340243      2.91005509338990     -2.95245202152836
  H           4.85020125985204      4.00011115335738     -1.84649066414429
  H           6.55353066712469      3.60501949555863     -1.58761128575524
  F          -1.42663275640541      5.45532317455655      0.76619473569148
  H          -0.52650685317714      6.44212015312294      2.24877765709647
  H          -0.24418836441540      7.02977423248787      0.56456037981703
  F           2.04136411025510      7.37801876127040     -0.12161326770235
  H           2.10487510407044      7.33246018150071      1.86863232472795
  H           3.37286313768846      6.39074457086999      0.98610309687746
  C          -0.28710909185086      1.53439179255955      0.11213185061917
  O           0.15615614562322      0.30007938519903     -0.35601182863983
  C          -0.53855144418428      1.50211274945667      1.60752937238232
  C          -0.90359340109913      2.65062622641990      2.29458055795394
  C          -1.20385286100278      2.60380049369720      3.64256468129660
  C          -1.13000877279701      1.40346250164936      4.32825109561030
  C          -0.76400287079540      0.25377086903474      3.65247544973413
  C          -0.47574131669207      0.30018795559147      2.30047436663407
  C          -1.57387033409532      1.89680868121851     -0.63112894656552
  H          -0.96763696146512      3.58405291371430      1.75818136286221
  H          -1.50096908535606      3.50474759882746      4.16098138242442
  H          -1.36050517933990      1.36554408832186      5.38263793981654
  H          -0.70669147810760     -0.68826483716760      4.17745907290137
  H          -0.21342398622525     -0.60487762836918      1.77337051225865
  H          -2.33080588378304      1.14769574470953     -0.40822478348788
  H          -1.39063075292137      1.89955021528990     -1.70288421662591
  H          -1.93468956804745      2.87493641853416     -0.32655570693235
