73
Coordinates from ORCA-job TSA2S_3S E -104.412339385900
  Ru         -1.14908208127533      0.36094858577040     -0.56946692333106
  H          -0.66261435468415     -1.36332875832173     -0.47189448759578
  N          -0.14101035945529      0.37492338948522      1.26479275894072
  C           1.20910702162882      0.21252244526232      1.22941924883638
  C          -0.77793324703541      0.37410423657814      2.43860259036576
  C           1.93149019415647      0.08656006598429      2.43096685800652
  C          -0.10630701281484      0.26291856060305      3.64477444998043
  C           1.27722643137474      0.11945008876414      3.63559626972484
  H           3.00121646888313     -0.04378900387860      2.38165116124899
  H          -0.65649435430417      0.27621021829538      4.57154237603819
  H           1.82049713232316      0.02770176413853      4.56353197309339
  P           0.95844018159551      0.94685548453557     -1.36064489748388
  C           1.63409055970526      0.27962170364189     -3.00255204047459
  C           1.46663248033199      2.78177772501892     -1.16844021287402
  P          -2.98015335378768      0.23220409945052      0.75813780768890
  C          -4.09171994134646      1.73492050445251      0.70239648002859
  C          -4.45298044550794     -0.91654606968444      0.97484449176715
  C           1.86288211867893      0.08425155530948     -0.05074223738104
  H           1.64800320997292     -1.22234920690763     -0.39013025489571
  H           2.94338215098909      0.21074212006880     -0.02439945292876
  C          -2.28107243213433      0.51056933980253      2.45438459153663
  H          -2.70323684222519     -0.18826390999440      3.18191512819715
  H          -2.54687540444572      1.52917968082919      2.76361161873989
  C          -2.06318414555778      0.29606390617261     -2.17600393106199
  O          -2.67716987831978      0.30558757001361     -3.14902913575124
  H          -1.44088296685789      1.85860159645424     -0.48061981292701
  C           3.10848063785225     -0.10809376260328     -2.90546251657636
  C           0.82514804959013     -0.97662114712286     -3.33416303481453
  C           1.39233044772118      1.28022728807316     -4.13278018499105
  H           3.23252016510875     -0.94488943880993     -2.22283216851556
  H           3.45858876369644     -0.42242608871151     -3.88814761948865
  H           3.73328309081470      0.71604507383294     -2.57488676253298
  H          -0.23497433901839     -0.74085945996979     -3.43064452201977
  H           1.16686786160265     -1.39161958593848     -4.28164331960653
  H           0.96307089085115     -1.73734531410187     -2.56868888656170
  H           0.36076201320579      1.62974805330739     -4.10738675298422
  H           2.06382277224566      2.13250281375209     -4.08495089776848
  H           1.55725997417432      0.78698565794125     -5.09048307015404
  C           1.22034377561086      3.15385612351227      0.29712738943664
  C           2.94175129746492      3.03985491607416     -1.47013944268538
  C           0.56556758575228      3.66242295010699     -2.03583014908582
  H           1.89455748758043      2.62121600110523      0.96526826206186
  H           1.38681323445508      4.22152852067509      0.43640278702259
  H           0.19157826953192      2.93197112437942      0.58253477867122
  H           3.17905172967824      2.89625551773327     -2.51974175895529
  H           3.18200464017787      4.07232866758535     -1.21619039300664
  H           3.58035451828581      2.39317214894878     -0.87095230619693
  H           0.87153664068857      3.66244249431543     -3.07607108944323
  H          -0.46520969535381      3.31150485041702     -1.97395470691398
  H           0.59933075707189      4.69134716653089     -1.67973275562121
  F          -4.17027719323205     -2.20486444524028      0.62127005794109
  H          -4.81352891155043     -0.92999611141043      2.01242606541785
  H          -5.24422715434949     -0.57695205253259      0.29454180066928
  F          -4.84956933258752      1.67049212931616     -0.43557525036361
  H          -4.78920293352327      1.77252627959791      1.55204818205506
  H          -3.49248813908505      2.65022485010779      0.64544161290380
  C          -0.06322808545687     -2.42660724237398     -0.22499397454894
  O           1.18247408430092     -2.37114970296673     -0.70702228941804
  C          -0.10687764796434     -2.64624572537869      1.27881118149415
  C          -1.28351790230240     -2.56247144082680      2.00727982120705
  C          -1.30158035446085     -2.85234764392061      3.35848556137378
  C          -0.13366912054870     -3.21866556710265      4.00552439249807
  C           1.04698658127317     -3.29950654810326      3.28884262859215
  C           1.05911759058142     -3.02104105444794      1.93475183387360
  C          -0.90721139425785     -3.49832488367829     -0.92715241422710
  H          -2.19433795025662     -2.28016988052148      1.50186764485347
  H          -2.23010705898467     -2.79801745153816      3.91034058612568
  H          -0.14644403308201     -3.44324499379506      5.06217452430183
  H           1.96272170255540     -3.58727727471349      3.78461650907316
  H           1.97166339878692     -3.09985989114704      1.36227791460986
  H          -0.46892403804472     -4.47255344536923     -0.71677624033647
  H          -0.88947119711657     -3.33377707096764     -2.00193645143827
  H          -1.93539260937116     -3.48316309586502     -0.57613899341590
