73
Coordinates from ORCA-job TSA2R_3R E -104.413510948010
  Ru         -0.96796462791248      0.49077809349592      0.21400822008319
  H          -0.39525565630390     -1.13941314749042      0.05139284013263
  N           0.20883365612799      0.48277488979573      1.95321481838005
  C           1.54562636125781      0.31714243722156      1.80166310405922
  C          -0.32847702653512      0.51803073651437      3.17592181969606
  C           2.35742129071984      0.11878561267459      2.93434523516017
  C           0.42881967696955      0.33725438732635      4.32057687892313
  C           1.79903803536082      0.12133347543377      4.18851685687865
  H           3.41500340285566     -0.04043319374612      2.79490411955071
  H          -0.03900696998674      0.36580332572260      5.29134828838379
  H           2.40978455795546     -0.03492878551037      5.06466840266039
  P           1.04413110864002      1.21453382543398     -0.69801902466454
  C           1.61817892501135      0.68422492182256     -2.42476929178692
  C           1.50015347320247      3.05107584742229     -0.41588935915403
  P          -2.59455079775448      0.02836820306222      1.75366174399856
  C          -4.17269057925878      1.01593936993696      1.68597058397250
  C          -3.30539083110394     -1.48787968509051      2.59957471676279
  C           2.07336999693607      0.26809971855873      0.45853471735802
  H           1.84123776033754     -1.01562125382786      0.11850289319868
  H           3.15149241729080      0.39394895727531      0.38672305371566
  C          -1.80474787940450      0.78950913837045      3.24822453570489
  H          -2.23817425397243      0.43944987164695      4.18906536350898
  H          -1.96537872873390      1.87148677953848      3.15967735435070
  C          -2.00889080224107      0.52466930422150     -1.31348475208385
  O          -2.69202304061871      0.61424882912292     -2.23466280283735
  H          -1.40308318908352      1.94353113346056      0.48652084087862
  C           3.12044248253712      0.41391270972167     -2.49264665967431
  C           0.88804474185311     -0.62013879079789     -2.75160876645345
  C           1.18935371438196      1.72171967978118     -3.46221968673402
  H           3.37989427684840     -0.43422939534182     -1.86409978348576
  H           3.38653424009115      0.16196485015094     -3.51867829814831
  H           3.71436282254494      1.27175723525444     -2.19407950844222
  H          -0.19397375317618     -0.49374205942448     -2.68913025973113
  H           1.13041710015965     -0.93201036622959     -3.76662252438367
  H           1.19583304009902     -1.41731103689223     -2.08040097418923
  H           0.14316308390617      1.98809167493063     -3.31271598114432
  H           1.79949877266622      2.61970301131077     -3.42444156070629
  H           1.28996372513286      1.29813467957452     -4.46105827190323
  C           1.36727507673250      3.31185169081914      1.08721555724092
  C           2.92779586640127      3.40351367349745     -0.82718909113392
  C           0.48269483573449      3.93761440241751     -1.13592451629729
  H           2.10817748940244      2.75534689309838      1.65862199795640
  H           1.51726155311467      4.37191236980533      1.28922972619501
  H           0.37083369628630      3.03986087893896      1.43408302892354
  H           3.06784072331726      3.35751436519802     -1.90296850357751
  H           3.14904551679514      4.42265140540456     -0.50989396797679
  H           3.64570885519368      2.74182443845610     -0.34543646849991
  H           0.68600332237632      4.01628231647905     -2.19816228560921
  H          -0.52069125380457      3.53113895037113     -1.00037185606754
  H           0.50494206325852      4.94292423682888     -0.71730483507592
  F          -3.75460219971190     -2.38584650893579      1.67667743771138
  H          -2.53071448174982     -1.98724081987606      3.19591769668060
  H          -4.15884340502400     -1.21618088328412      3.23521980943396
  F          -5.11895338792407      0.27800208376960      1.03054286177189
  H          -4.56769291448657      1.23673270711453      2.68802279478702
  H          -4.01112906879145      1.93774462860549      1.11428288770658
  C           0.09971828141554     -2.25727319159786      0.06654521813721
  O           1.41728253395068     -2.19003846897600     -0.15935652868178
  C          -0.66324106900480     -3.02085759455143     -0.99906418755347
  C          -2.01144843006624     -2.79332943446087     -1.23517436000506
  C          -2.68967084217154     -3.53558018923587     -2.18308022506062
  C          -2.02503793544488     -4.51267992430445     -2.90612650162531
  C          -0.68035333104717     -4.74384105944101     -2.67523066466291
  C          -0.00287699716698     -4.00297296920558     -1.72402210216575
  C          -0.24524215652274     -2.86498477040538      1.44035646998919
  H          -2.54089826094667     -2.02577557981392     -0.67856048243215
  H          -3.73823382027811     -3.34698760773486     -2.35936579583126
  H          -2.55510839397512     -5.08938363416432     -3.65024241681243
  H          -0.15600729437737     -5.50351481633154     -3.23695875351394
  H           1.04735124289636     -4.16711554618878     -1.53347425257796
  H           0.26482307031640     -3.82463844411481      1.51069841992413
  H          -1.31487748853176     -3.03428581139782      1.52172539835549
  H           0.10787807703392     -2.23295277121429      2.25627960851267
