21
Coordinates from ORCA-job NEB_product E -40.964572335180
  C           1.42576408652267     -0.99004495194171      1.56785713941294
  C           2.89748201405130     -0.84210482142468      2.03938918024895
  C           1.41836119998028     -1.35122165270591      0.08855087369706
  H           0.98020915962168      0.00835993200495      1.63880538383155
  N           3.45390428167859     -1.99600071433217      2.42392476778378
  C           0.61789678206594     -1.91397595366738      2.51840322039675
  C          -0.87294108772996     -1.71133142786085      2.36175706504340
  C          -1.51546115183147     -0.63500997531494      2.77402560325179
  O           3.44928616043491      0.23228054485728      2.04888059791760
  N           1.03805544974907     -3.30495430581368      2.40134792595331
  H           0.89644454917540     -1.58465670647285      3.52931154929118
  H          -1.41132072589664     -2.52958272372634      1.90311021666153
  H          -1.00207898318851      0.18930814068952      3.24169681629575
  H          -2.57928949749656     -0.52936073201835      2.65471111141857
  Cl          2.37050399808555     -2.79973266202871     -0.29835634834461
  Cl         -0.23400413294257     -1.61932854140837     -0.52599704093238
  Cl          2.11928222301004      0.00291766214290     -0.84301003254336
  H           4.40460949698730     -1.99236047034976      2.75373302378954
  H           2.88582901999943     -2.83926859897317      2.44776939297159
  H           0.72567231113833     -3.69797439385969      1.51901344268808
  H           0.62449484658519     -3.85255764779610      3.14787611116698
