32
Coordinates from ORCA-job R E -46.172811497560
  C          -0.51411793830150     -0.30366243369521     -2.73758960296469
  C           1.03654591501747     -2.89347791808514     -2.75328664315654
  C          -0.24340089352999     -2.75122718159191     -2.41859638059845
  C          -0.95900157606143     -1.49664331771542     -2.32346141060011
  C          -1.21272341068230      2.73588419947231      0.77437226206113
  C          -0.89965296396795      1.44562305094939      0.75765732388869
  H          -0.82632986965473     -3.63156595646204     -2.17882324086908
  H          -1.94587877522540     -1.54695614850722     -1.88321001691542
  C          -1.28224573287500      0.94063787084068     -2.61304086994970
  H           1.50053742741553     -3.86372832500432     -2.79934705264979
  H           0.45419168209150     -0.17359216063743     -3.19532470333927
  H           1.66549817397926     -2.05001983371412     -2.97794094853516
  H          -2.14139916942344      3.08166552792608      1.19672710208973
  H          -1.59694685856661      0.72997698139725      1.17788177530885
  H          -0.55826156663703      3.49721923025602      0.38573161852404
  C           0.32916362348292      0.85838499361015      0.23812826211044
  O          -0.87230115126208      2.02477433683702     -2.95543364745927
  O          -2.50740629339624      0.75928694979800     -2.08664692145222
  C          -3.29636208423256      1.93053937622894     -1.95659346341746
  H          -4.24780543937988      1.61205812187461     -1.53830003754401
  H          -3.44288978275143      2.40023614138422     -2.93172569949899
  H          -2.80189050406083      2.64262546254866     -1.29166480621428
  C           1.24493438422891      1.57637556974279     -0.53109425414761
  C           2.39747294811307      0.97375157806185     -0.99637360432477
  C           2.66380787809540     -0.35317244659646     -0.70035324726720
  C           1.76136606412377     -1.08030032119922      0.05766849113382
  C           0.60468915164594     -0.48138819889077      0.51598831746947
  H           1.04584287417738      2.60470104241462     -0.78705352032850
  H           3.09324495832278      1.54272160577951     -1.59592101990892
  H           3.56944103897537     -0.81966417112535     -1.06056771461085
  H           1.95911010517056     -2.11731485019630      0.28753610896213
  H          -0.09875221483148     -1.05431877570117      1.10460754420400
