32
Coordinates from ORCA-job TS E -46.158320664690
  C          -1.25695432028748      0.18489048183637     -1.27176384582633
  C           0.16635696931926     -2.18455564680559     -0.53795982455386
  C          -1.15069883910940     -2.20339550421642     -0.85645657980736
  C          -1.85447892033221     -1.04982443743049     -1.25488972212253
  C          -0.80800078003095      0.41333588126587      0.87260432285538
  C           0.08368034605155     -0.54909317124877      1.24969935464113
  H          -1.73547122354867     -3.08718870134608     -0.63808840103802
  H          -2.92994736744169     -1.10630166344499     -1.33711250065378
  C          -2.00740482536390      1.42218357025772     -1.54060396155585
  H           0.63717536621501     -3.04924489987116     -0.10008033339414
  H          -0.19862049380945      0.28226776080687     -1.45832595810246
  H           0.83736921866309     -1.44295891091279     -0.92802947309935
  H          -1.84376511506274      0.31272114343656      1.14977950762432
  H          -0.28054906005547     -1.41231746439244      1.78812062179251
  H          -0.47679205404754      1.41465918938742      0.65794123978415
  C           1.53076609664572     -0.37200813419236      1.24709626008588
  O          -1.49383937163743      2.47345929523030     -1.84461580660580
  O          -3.33564922298794      1.27774607775082     -1.38332460002680
  C          -4.11297021049241      2.44125849829359     -1.61363693083320
  H          -5.14631930045991      2.15973873952185     -1.42752422077570
  H          -3.98831318059360      2.78488467099600     -2.64280490934150
  H          -3.80569564442585      3.24324748378414     -0.93875567784273
  C           2.16383732447206      0.64634052637727      0.53106933419050
  C           3.53868187625029      0.77943166854322      0.55968955858476
  C           4.31319895271630     -0.09591707930624      1.30324423659765
  C           3.69994820774712     -1.11124107713199      2.01890466476540
  C           2.32649167291835     -1.25002488333609      1.98637704759302
  H           1.58034258227551      1.33798792877625     -0.05782937513909
  H           4.01071504607534      1.57158606037008     -0.00334621026863
  H           5.38746248111254      0.01198862905010      1.32404714381542
  H           4.29654494095530     -1.79849173659010      2.60133471906948
  H           1.85289884826921     -2.04516429545892      2.54524031958752
