19
Coordinates from ORCA-job P E -32.853846895770
  C          -1.29817705023944      0.66936395469580     -2.04387835614177
  C          -0.50072572045146     -1.75376724793718     -0.51973638745178
  C          -1.14045864578954     -1.78613798085513     -1.87165381498996
  C          -1.49961504411180     -0.71121271777832     -2.55556304552375
  C          -1.05158199176845      0.69851426832084     -0.54412793546542
  C          -0.01510707790241     -0.35126496950281     -0.13555519147779
  H          -1.29454703954343     -2.76896435610841     -2.29231215361886
  H          -1.92609058828832     -0.80503202207401     -3.54313003453468
  I          -3.05064929569608      1.90645299038228     -2.49662415052644
  H          -1.22422679529696     -2.10302016920745      0.22364815781362
  H          -0.49555348316002      1.16213171224867     -2.59583017805006
  H           0.33924839841795     -2.45270483727330     -0.50046384763091
  H          -1.98081135466986      0.46344940579606     -0.02061296068909
  H           0.12858938609617     -0.29996028910676      0.94962774021057
  H          -0.73085029270697      1.69450821664399     -0.22930377487535
  C           1.36306141008552     -0.05884487627124     -0.72854799960525
  F           2.30083926643114     -0.82944487304906     -0.12080129770490
  F           1.45056619481157     -0.34982974819146     -2.04778758178634
  H           1.66883972378240      0.99248353926748     -0.60050718795183
