19
Coordinates from ORCA-job R E -32.755522378600
  C          -1.08927603614940     -0.08405512922001     -2.86168349753560
  C          -0.34489915253906     -2.82357359004370     -1.89318966858973
  C          -1.57602997383938     -2.33249089610453     -1.99850668433713
  C          -1.91426612433775     -0.94941349032821     -2.28596872126953
  C          -0.94751811615730      1.48054761856835      0.44853967264296
  C          -0.07868288807309      0.50446728848065      0.27036847266780
  H          -2.42557189944154     -2.98105148841415     -1.82477183089283
  H          -2.91499173084716     -0.64383324273978     -2.01093631823985
  I          -1.60536176220418      1.92286837129711     -3.20304623361348
  H          -0.17642822771467     -3.86182876006744     -1.66504489806140
  H          -0.09480801865268     -0.32456969370449     -3.19110930454869
  H           0.53291019710537     -2.21304897521917     -2.01660370244139
  H          -1.97025902532310      1.28167555265636      0.71746494800346
  H          -0.33926453337571     -0.53692710391650      0.39030578896440
  H          -0.67553624756982      2.51541636429921      0.32268323820215
  C           1.34843852955903      0.74643445447900     -0.11036358367349
  F           2.19153311850399      0.24342990662558      0.82815932971931
  F           1.65633116578396      0.09112699125304     -1.26486836752650
  H           1.59647072527250      1.80879582209867     -0.25314863947044
