23
Coordinates from ORCA-job NEB E -36.010972077040
  C          -0.65923421826792     -1.53523292489271      0.60073734529673
  C          -1.64356943485496     -0.96141726676586      1.30108121612577
  C          -0.98360623920841     -2.27817738892478     -0.67094092854834
  H           0.10060619750424     -2.02887345972540      1.19242029400623
  Br         -3.14936464353358     -2.29227659250250      2.49966149170918
  C           0.69551261559518      1.52238696685907      0.03335825264910
  C          -0.60000083950913      1.24959064741450     -0.02523427285597
  C          -1.52879536240731      1.39785711500307      1.12832551180127
  O          -2.11628145341532      0.14565007233110      1.59317091658196
  C           1.63747168043591      1.36792347578059     -1.11214792351518
  H           1.13915998955649      1.86111991330213      0.96172247800662
  H          -1.04941361830853      0.90711791406544     -0.94605123580926
  H          -2.39863580795014      2.01142842103598      0.87480160326284
  H          -1.02760778894367      1.82529428673213      2.00205599473866
  F          -1.44557594498855     -1.40947094261544     -1.63477615473630
  H          -1.77578731438032     -3.02589032100869     -0.52812751576896
  H          -0.08387553797077     -2.74450898386596     -1.07848516161765
  C           2.72182043691186      0.34256010029032     -0.77865325120392
  H           2.10996184821555      2.33107639839378     -1.32242712003581
  H           1.09034965074203      1.05095505048280     -2.00045841522576
  H           3.28609581795896      0.65126530430774      0.09842329320789
  H           3.41038621490888      0.23702510705694     -1.61279402595873
  H           2.27038375190953     -0.62540289275424     -0.57566239211037
