21
Coordinates from ORCA-job NEB_product E -38.070984693090
  C           1.39674099603501     -0.65842676769603     -1.83784212600977
  C           2.25950946118073     -1.85648623648211     -1.45666020551551
  C           2.14305502786190      0.63719035903713     -1.48378442881022
  H           0.50702920232653     -0.70026102172965     -1.19505468315050
  C           2.72596986571392     -1.78489212189855     -0.08016857936657
  C           0.92950141082239     -0.77312858214946     -3.30590230095008
  C          -0.36629999791292     -0.03748186679880     -3.50499378931471
  C          -1.49419411946098     -0.62365543945997     -3.85643953918271
  O           2.51657820886437     -2.78033369515615     -2.17940667854860
  C           1.97892188962457     -0.29255953518145     -4.31565912909837
  H           0.77262578999178     -1.83802886113697     -3.51067886096596
  H          -0.32267684798694      1.03262632916524     -3.35718738595199
  H          -1.55609950177427     -1.68751818374121     -4.01901608303728
  H          -2.40352106838791     -0.06573605713592     -3.99772337020545
  F           3.45860608665128      0.55604422202497     -1.86108348167653
  H           2.14239985794904      0.80871792791581     -0.40193281456332
  H           1.71511357928223      1.49869101955396     -2.00239645528006
  N           3.06930896860714     -1.72100370361406      1.00928749060049
  F           2.03622012953144      1.07835084137176     -4.36696018207854
  H           1.70873665037837     -0.62627253091433     -5.32212819714194
  H           2.98127441070229     -0.64683609597420     -4.05966919975240
