21
Coordinates from ORCA-job NEB_reactant E -38.067708800640
  C           1.75516453233665     -0.00780475766774     -0.62001278302131
  C           1.50790573670802     -1.32236817580634     -0.71331131914169
  C           1.19430921169609      1.14358945232921     -1.39010527545720
  H           2.46773029790062      0.29279361284342      0.13551412658425
  C           2.20755230527560     -2.15831942742485      0.21117778282232
  C           0.82071472712283     -0.30092071311854     -4.67680251027400
  C           0.99908537216955     -1.23161710410502     -3.75395136063886
  C           0.04455793559300     -1.50506062692866     -2.62925409947323
  O           0.67833717392205     -2.05923284081298     -1.49537890384759
  C           1.75576906527605     -0.05283658642605     -5.81638207167693
  H          -0.04432794334149      0.34918004735623     -4.66950164243163
  H           1.86558986830615     -1.87767200960031     -3.78758344791257
  H          -0.65331181018239     -2.29362905517491     -2.93663267325821
  H          -0.53779661159980     -0.61348986276119     -2.36898449355365
  F           1.95362107987602      2.26287807783859     -1.15219516272773
  H           0.17654205194592      1.39741916457918     -1.06128009177657
  H           1.21142357075274      0.98603348694988     -2.47425063435763
  N           2.78249940829233     -2.81069254138405      0.95524947316217
  F           2.82244902364959     -0.91054579097685     -5.80142331655577
  H           2.16426563748356      0.96525175721083     -5.77294009546038
  H           1.24441936681690     -0.19415610691986     -6.77695150100377
