20
Coordinates from ORCA-job NEB_reactant E -42.138353571750
  C           2.00544520304290      0.25890634927130     -0.16704137964253
  C           1.62265212984103      0.91924918751776     -1.28018819470377
  C           1.54220269437488      0.42383821153741      1.22615573975499
  H           2.70958149559610     -0.55104565053344     -0.27025099130968
  O           2.07626119810116      0.52080827602570     -2.48637280518856
  C           2.13051177449751      4.89608812516505     -0.99930232991086
  C           1.87671621970397      3.78553630660032     -0.30559681796731
  C           0.62763562244924      2.99069558525226     -0.48987787954303
  O           0.79405295578850      1.93519520016577     -1.45934760352866
  N           3.30860471126935      5.59850943461317     -0.95931441871310
  H           1.40306929393776      5.28252466498903     -1.70058749994189
  H           2.61109688036837      3.39520923939721      0.38231273650078
  H          -0.15806343356464      3.60064729823787     -0.94006617071571
  H           0.26259341699295      2.58971638012276      0.45665729433795
  F           2.01373670786981      1.52221945021307      1.86693140441445
  F           0.20022492207851      0.48520770020400      1.36682722088510
  F           1.94129794787948     -0.61694731217799      1.97591993343149
  H           2.58265520355292     -0.29784921828241     -2.42179533128512
  H           3.93209679893173      5.36474856955833     -0.20220735596805
  H           3.26442825728846      6.57994220212282     -1.17715555090647
