20
Coordinates from ORCA-job NEB_reactant E -31.724383264820
  C           0.47813102226226     -0.48745100328959     -0.49998415706165
  C           1.58813797013142     -1.21230563352619     -0.39973057577119
  I          -0.11337347689494      0.34179426965161     -2.33570478063557
  H          -0.15515682765027     -0.25386729548992      0.33354576325157
  C           1.98908946875198     -1.82111462264497      0.91914802797451
  C           1.15878500176714     -3.65836039166910     -2.52657543753461
  C           2.41835832366054     -3.68461128543737     -2.13858620329325
  C           3.17969610842937     -2.46052343192848     -1.70582494979754
  O           2.37540904341582     -1.32469906100059     -1.50902600196956
  I           0.10411998682299     -5.37945845390269     -3.10707472311377
  H           0.56954134953373     -2.75909755741798     -2.57328450793759
  H           2.99218663667315     -4.60032144580988     -2.12060267417148
  H           3.87646308345480     -2.17462526615123     -2.50311409523243
  H           3.77357204696693     -2.70157905232649     -0.81443460907546
  C           1.41008665923678     -3.22353401045728      1.11968484934279
  H           1.61944914094894     -1.17250967188312      1.71491607171125
  H           3.07801185421878     -1.84892050487549      0.99683678640869
  H           0.32621757386684     -3.19609340525711      1.03666727845331
  H           1.67148677254977     -3.59346669266664      2.10809987335715
  H           1.79068826185398     -3.92265548391749      0.37924406509486
