17
Coordinates from ORCA-job NEB E -29.978747050120
  C           0.99028488289825      0.11015666256438      0.46077285494358
  C          -0.12125233631659      0.34480702078384      1.36956918589103
  I           2.54874466645391     -1.26430971522193      1.41191477359051
  H           1.58783185144582      1.00343062144786      0.30458248580347
  C           0.16769006246035      1.04760417207446      2.55075444953213
  C           0.47762087458933     -0.43350567645413     -0.86279185012869
  C          -0.90883212361945      0.12609268929477     -0.86123523701320
  C          -1.86259182259035     -0.43243920458251      0.12340231319288
  O          -1.29412533507747     -0.34410805819386      1.40033716270721
  N           1.34050865265541     -0.06140210714306     -1.95392767471704
  H           0.45643173920616     -1.53439802120010     -0.82186710806650
  H          -1.28447399306447      0.63454773368968     -1.73405423991158
  H          -2.12592586137465     -1.47952773264883     -0.09299494397104
  H          -2.79755716256299      0.14016408975522      0.15464574894189
  N           0.41550973579418      1.70528518724400      3.46198260330377
  H           1.35513721983528      0.94240081349317     -2.09334202786928
  H           1.05499894926728     -0.50479847490295     -2.81774849622915
