17
Coordinates from ORCA-job NEB_reactant E -30.030385137050
  C           2.07662176060653     -0.79488591544264     -0.42117065975856
  C           1.23856126213517     -1.80965868144698     -0.16087154798869
  I           2.11260915114846      0.60116636465552     -1.98494814807636
  H           2.88285257660280     -0.62366690408568      0.27235412865507
  C           1.57708863147103     -2.52655772396774      1.03248368038869
  C           1.57875083187626     -3.14937625748570     -3.07309300950965
  C           0.64821276194152     -2.19814020684272     -3.13298571726814
  C          -0.29827251118135     -1.87901613737471     -2.01364579653387
  O           0.14423700745278     -2.32590711841668     -0.74199270012987
  N           2.38596597045156     -3.52711228856016     -4.12147743575848
  H           1.71017449554069     -3.74297435354251     -2.17738576217993
  H           0.50536756191096     -1.61929413355625     -4.03289766321347
  H          -1.24977619400204     -2.40898272028382     -2.14683998600249
  H          -0.51692194575685     -0.80460033259067     -1.98865395370254
  N           1.87711553276219     -3.10032164133496      1.97630198268993
  H           2.41375999331727     -2.88461991742077     -4.89845728805393
  H           3.28095311372302     -3.92045203230354     -3.88102012355770
