17
Coordinates from ORCA-job NEB_product E -30.021789742430
  C           1.74551788285385     -1.25050807505796     -1.14443582244327
  C           2.69218259333723     -1.88881161455751     -0.15405666524597
  I           2.86127508145046      0.18984693238683     -2.29936266752960
  H           0.97236044797110     -0.69020739877123     -0.61376650132709
  C           1.99549662536954     -2.82314959398731      0.71674773761779
  C           1.08630407334423     -2.34611405137156     -2.00355842229778
  C           0.19500355122317     -1.75390052491279     -3.06412178714157
  C          -1.12287374816671     -1.75655754664876     -3.00120348920077
  O           3.86371429259818     -1.65911187796775     -0.06534959299973
  N           2.13691084482905     -3.21258160746817     -2.50960922814591
  H           0.47088345077310     -2.94963467642766     -1.32030197169551
  H           0.70921591952217     -1.32959282022900     -3.91675701501041
  H          -1.65162995898126     -2.18152154983129     -2.16304524924151
  H          -1.72833646792481     -1.33381014430489     -3.78412370022035
  N           1.43152372782743     -3.54053984342640      1.40664734915561
  H           2.74765094602351     -2.70218975024780     -3.14219960187459
  H           1.74410073794976     -3.99451585717676     -3.02000337239934
