15
Coordinates from ORCA-job NEB E -29.710922942270
  C           0.06521793787831      0.29403917114328     -1.45639831614450
  C          -1.24663456155563      0.14227098334702     -1.05195551520163
  Br          1.00770135588566     -1.25874005597978     -2.06934200472780
  H           0.37866151176107      1.17361843368890     -2.00080654551101
  I          -2.34273190103574      2.04084861229606     -0.99176545103855
  C           0.91771311386899      0.55565725639558      0.43191691268136
  C           0.40086343844116     -0.58205508383296      1.05578445610369
  C          -0.96467580817501     -0.70083799663300      1.30222403535524
  O          -1.68306203516192     -0.78926036295739     -0.35982404480713
  O           2.21933280381340      0.69987044539551      0.14718783233390
  H           0.45321509738555      1.52230636354761      0.59745457932045
  H           0.99894185937268     -1.48447068618253      1.02052462293726
  H          -1.52403528655897      0.17790057086950      1.59699170600621
  H          -1.33851328858824     -1.62969232171237      1.70378372695054
  H           2.65800576266870     -0.16145532938542      0.07422400574196
