15
Coordinates from ORCA-job NEB_reactant E -29.735219511970
  C           2.22324641544081      0.70991356266939      0.36079555192418
  C           1.54353512344767      1.29481951458425      1.33719535910169
  Br          3.16979697109998     -0.93447142395981      0.44131462657635
  H           2.27425352197169      1.15230017714837     -0.61777996423771
  I           0.57804695203850      3.12795578929262      0.85792174828185
  C           4.02228805333857      1.47032868378544      3.31791879361613
  C           3.46818189860546      0.26880655512524      3.41412382423060
  C           1.99162481584770      0.02201372289865      3.32808017628290
  O           1.28429219750581      1.03121099076579      2.61343254160624
  O           5.34119919734767      1.73905515935156      3.37248520902213
  H           3.44664478987655      2.37518236206764      3.17841767442754
  H           4.07658892465532     -0.61303132359143      3.55577097201341
  H           1.53202492127703      0.05154419048994      4.32288460703072
  H           1.79464442071401     -0.96344244899865      2.89230971791495
  H           5.84443179683324      0.92321448837100      3.49402916220902
