15
Coordinates from ORCA-job NEB_product E -29.744628962510
  C           3.12061156150452      1.18693164045603      1.18626146191940
  C           1.64774545991543      1.04354644823113      1.07747083562993
  Br          3.97098922727786     -0.30236692260619      0.23606242814497
  H           3.47361884048755      2.10379456889224      0.70885977488122
  I           0.64237769776108      2.90063741293393      1.60235407122878
  C           3.58836458830052      1.18450582118076      2.67924827180833
  C           3.06243694993780     -0.04049680399373      3.37575555341281
  C           2.05176348781374     -0.02374340866570      4.22295508535023
  O           1.01156406390228      0.09624838881428      0.78734526338395
  O           4.97078577441043      1.31532364560429      2.75068936256737
  H           3.18601497649222      2.09038937127482      3.14837004223499
  H           3.57051675754486     -0.96384177285564      3.12877478253477
  H           1.54006118927964      0.88822787282540      4.48524242250622
  H           1.69550766687103     -0.92391833859733      4.69214506214085
  H           5.39264175850103      0.49986207650570      2.44306558225618
