15
Coordinates from ORCA-job NEB_product E -30.480662529000
  C           1.70044860089098     -0.65965084056623      1.90258666927767
  C           1.08261236050490      0.38476282651451      1.03533204532300
  Cl          1.08878996205289     -2.25346761503134      1.39365872508267
  H           2.78829793941119     -0.67299837114524      1.78663098190403
  Br          1.99467657699494      2.11009257790547      1.28301793388223
  C           1.37795178615987     -0.40908114508488      3.39759014603726
  C          -0.10754851803098     -0.44325583448482      3.62996827750806
  C          -0.83242520711852      0.63586903556389      3.85409445329825
  O           0.17899025192339      0.32411066156900      0.28641425970071
  O           2.07423675170797     -1.39504905293748      4.11762848178209
  H           1.77185754918979      0.58940368048985      3.65548797001540
  H          -0.55049229869077     -1.42837807739973      3.59324636644557
  H          -0.39374857729331      1.62038780115579      3.88999630121428
  H          -1.89582006894939      0.57983034049629      4.00669207741177
  H           1.70357289124705     -1.46057598704507      5.00415531111702
