15
Coordinates from ORCA-job NEB_reactant E -30.471547482290
  C           2.30264428927520      0.18597637418882      0.41038529506613
  C           1.18224886266021      0.47037445226950      1.06975313187931
  Cl          3.46655210409645     -0.89899688459102      1.06070660675900
  H           2.53237593068685      0.59655457683227     -0.55643344552696
  Br         -0.02063535882706      1.71008057190231      0.23041325132550
  C           0.55396244840328     -1.22801233484355      4.68619540316626
  C          -0.11379518177672     -0.11697090449419      4.41082303949794
  C          -0.02381126993671      0.61752510280697      3.11187482792147
  O           0.81351143563178     -0.09544966013629      2.21109202311410
  O           0.43344517810390     -1.85338975971649      5.88732777588874
  H           1.21811088734251     -1.67606279859721      3.95893626526438
  H          -0.77289446968802      0.32005579144496      5.14358806376965
  H           0.37909463404265      1.62745340625886      3.27967973560764
  H          -1.02812712676066      0.72319588857379      2.67428178777847
  H           0.98711763674635     -2.63963382189871      5.91337623848837
