20
Coordinates from ORCA-job NEB E -43.583823947050
  C           0.44697834786909      0.93710359232763      0.64046445253444
  C          -0.91432641412700      0.71384324613414      0.90941360209902
  Br          0.88407592513170      2.55325801906415     -0.30709363121910
  H           1.15181764835123      0.79381674165551      1.45443826689970
  C          -1.33799124496107      0.00317836662310      2.14457843622130
  C           0.83464389522803     -0.46339636939658     -0.60590241659017
  C          -0.15817810142306     -0.26971193646334     -1.56661976582226
  C          -1.53951751043400     -0.33945055910539     -1.16913816938238
  O          -1.77346819373578      0.75149924315242     -0.07888481011299
  C           2.28596426018076     -0.35011846415860     -1.01780282688747
  H           0.70125445500980     -1.27155435598857      0.10862570734950
  H           0.09248295834444      0.29187011766294     -2.45541801539780
  H          -1.82839922254502     -1.26103795702955     -0.66217609249998
  H          -2.25456241042160     -0.06665462302118     -1.93828863632436
  Br         -0.51394206380875      0.73655122905581      3.74087303309788
  Br         -3.26157523592431      0.07128026030067      2.31085846707967
  Br         -0.83491532522147     -1.99572287480402      2.12324305719073
  F           2.44433479010519      0.42481333733511     -2.13112064926014
  H           2.66647619829878     -1.34736298386712     -1.26965982738500
  H           2.90884724408304      0.08779597052290     -0.23039018159057
