20
Coordinates from ORCA-job NEB_reactant E -43.616652892220
  C           2.51302256355081     -0.59491753377707      0.11834482072259
  C           1.75066952162746     -1.69097375927825      0.12088530443344
  Br          3.00366620850593      0.50607982153223     -1.33181414323602
  H           2.93053616376377     -0.23619381187106      1.04613311364894
  C           1.52886296853499     -2.37864855037108      1.44777253958561
  C           3.62523242626655     -3.19504714127613     -1.96194198983083
  C           2.78229952570221     -2.43305296691475     -2.63847902958828
  C           1.37078894422917     -2.14450365812551     -2.22426867543060
  O           1.11638999151811     -2.37381709819495     -0.84571450648844
  C           5.03106735676967     -3.47446488690323     -2.38007368212391
  H           3.34818513632389     -3.68359235092086     -1.03778246584971
  H           3.08687479797957     -1.96801017877268     -3.56429839599780
  H           0.68520515925670     -2.83742795771597     -2.72517497544065
  H           1.08491943629057     -1.12541155343364     -2.50288002881927
  Br          0.95989899127850     -1.14103220779451      2.83987759395069
  Br          0.19650981104559     -3.76484962820380      1.29891860638251
  Br          3.20947596603116     -3.22049886892650      2.03955668088501
  F           5.33630995251455     -2.89263873914000     -3.58142031041827
  H           5.19259720426535     -4.55342908588203     -2.49483536581024
  H           5.74258787454545     -3.08116984403021     -1.64250509057477
