20
Coordinates from ORCA-job NEB E -29.413780900080
  C           0.87094189424186      0.96030105768362      0.16459641622249
  C           0.23292607722094      1.45043205871223     -0.96985725665725
  H           1.85824548253362      0.54149698947596      0.04193221661606
  H           0.71676696837473      1.50439166398916      1.08036436520180
  N           0.72689989873089      1.19283190871236     -2.22571929123897
  C          -0.36660143026398     -0.58769502619515      0.65636327284815
  C          -1.54425586225651     -0.36363324298819     -0.06541509419894
  C          -2.05618433558611      0.95321333563631     -0.05929074518848
  O          -0.96856965634631      1.92754602854205     -0.90439542469853
  O           0.31510118077279     -1.74034935019293      0.38472218149705
  H          -0.35100935269199     -0.29352002959536      1.70351727128553
  H          -1.65558028774687     -0.94128248006223     -0.97411533851571
  H          -2.05487403151576      1.46569920517673      0.89733026292308
  H          -2.95099786077114      1.14296733160480     -0.63666265365498
  H           0.06328243737228      1.22336051582029     -2.98293884493015
  H           1.48510699783403      0.53817613204774     -2.31445045498078
  C           1.23627005554710     -2.15216291416043      1.36487331001325
  H           2.03514289576107     -1.41446635036597      1.49802762424820
  H           1.66432536524733     -3.08885291079610      1.01239946797759
  H           0.74306356354204     -2.31845392304492      2.32871871523060
