20
Coordinates from ORCA-job NEB_product E -29.477899754880
  C           2.14440278243913     -1.53105751300637      1.69317925393997
  C           1.91410349450046     -1.42672053996483      0.18923016999599
  H           3.21735307985689     -1.46968753582115      1.88421025952713
  H           1.64539477473658     -0.68853945552249      2.17130567114391
  N           2.48880981141927     -2.42428417200437     -0.51409501863936
  C           1.61477948722153     -2.83969378107717      2.30118313622690
  C           0.17841424898024     -3.05723259291515      1.90830351503975
  C          -0.83623399492557     -2.97268390764630      2.74672001562728
  O           1.30717675903884     -0.51436233593302     -0.32508963462800
  O           2.45595633537247     -3.90184399507100      1.86095725651357
  H           1.68478098040603     -2.76911490690588      3.40018366456551
  H           0.02183243309738     -3.28096564874508      0.86200375522681
  H          -0.69150198197055     -2.74774503959600      3.79127252690637
  H          -1.85387682815996     -3.11040757580991      2.42447459725028
  H           2.34230262662752     -2.46537350711498     -1.50919173354974
  H           2.85936089803918     -3.22522822555307     -0.02808946883629
  C           2.19324493519094     -5.12737868363644      2.49666553938943
  H           2.32603505545685     -5.04281728629607      3.58189408013380
  H           2.91116297731311     -5.84205171228450      2.09849997098209
  H           1.17480212535968     -5.47641158509621      2.29398244318460
