24
Coordinates from ORCA-job NEB E -32.648946770870
  C           0.13328124442274      0.07445698345932      0.23884952430562
  C           0.19860966616505     -1.78999546605035      1.65872604577258
  C           1.17555765542380      1.12866103086769      0.15536524966395
  H           0.52305895696701     -0.77545261357303      0.95421453500214
  C           0.48152972880035     -1.38958500944505      2.95404090652413
  C          -0.49551623566367     -0.49920247170853     -0.97703482519033
  C          -1.74661491844791      0.31339752696231     -1.22676052010715
  C          -2.97150976695080     -0.13411509841729     -1.03500352545384
  O          -0.44200424711719     -2.64536455350978      1.11660791282577
  C           0.38004629984991     -0.52452221690768     -2.24016846789888
  H          -0.80787756221379     -1.52692000647415     -0.74377627271187
  H          -1.57047278942192      1.32143214714855     -1.57758162437065
  H          -3.16255780879483     -1.13277918885416     -0.67881124045798
  H          -3.83602083825277      0.47893138107558     -1.22639310926269
  C           1.59177585838589      1.66639555963126      1.52222912580741
  H           0.74490815689801      1.93983398415842     -0.44155330617961
  H           2.07152615942612      0.78434744353847     -0.38459014598017
  H           0.72174113099471      2.01147720607052      2.07511943388542
  H           2.28218969079118      2.49838060205647      1.40717314310687
  H           2.08328071146164      0.89451505128758      2.11051277148580
  N           0.87248371573480     -1.08675908728796      3.99952894532180
  H           1.28866046116550     -1.09624217023137     -2.06167147881021
  H           0.65271592468380      0.48297445788871     -2.54603115657838
  H          -0.16879119430763     -0.99386549168551     -3.05299192069976
