24
Coordinates from ORCA-job NEB_reactant E -32.796697521640
  C           1.63342533111042      0.24937056321087      0.06842697755967
  C           0.94364008600014     -0.63777734159033     -0.66667763443362
  C           2.43794737646960      1.36502406442091     -0.50738112240580
  H           1.61495769038447      0.14957869406701      1.14362112485201
  C           0.22554203994314     -1.66317037428129      0.00112830560760
  C           0.61907965311122     -2.21198858751651     -5.07489679198238
  C           0.26376651239312     -1.31692774312789     -4.16925551234916
  C           0.18578273968581     -1.58940929055984     -2.70057496455816
  O           0.91411524620822     -0.57272965826455     -2.02894583557936
  C           0.67951204337070     -1.95381850999695     -6.54149027191070
  H           0.87655055280819     -3.21763922042639     -4.76666723950757
  H           0.00961809795321     -0.30567521968112     -4.45412219356936
  H           0.60047071335376     -2.57899956285881     -2.46473123903001
  H          -0.86554169521973     -1.57059785825467     -2.37042192293597
  C           3.85266479264150      1.38427724691368      0.06949619580449
  H           1.94638094408099      2.31465501374909     -0.27189949817629
  H           2.47243249661874      1.26011299223679     -1.59225710581351
  H           3.82329997238825      1.49644372291299      1.15121134995795
  H           4.41872908336903      2.21299493491258     -0.34858211979841
  H           4.37136180237858      0.45796582885772     -0.16633252483169
  N          -0.34712659305956     -2.48887200451156      0.55576723137016
  H           0.41666747570341     -0.92419977822800     -6.76889308082608
  H          -0.00535639211727     -2.61821423174466     -7.06752969677459
  H           1.68308003042408     -2.15400368023911     -6.91519243066920
