14
Coordinates from ORCA-job NEB_reactant E -25.934977388430
  C           2.13880466886411     -0.49836473947626      0.23859188204172
  C           1.34484369966590     -1.34115618400824     -0.40912893020723
  Br          3.09002272234047      0.83712205671410     -0.68707356638309
  H           2.28275991053723     -0.50779153669791      1.30466302407521
  H           1.22777201965795     -1.29577458169918     -1.48670185264961
  C           2.12800471325141     -4.35753513590293     -0.97351848654415
  C           0.83228196432597     -4.24647261502978     -1.20239183197403
  C          -0.05207568095175     -3.21755146929560     -0.55754201090956
  O           0.63005330214947     -2.28572800917770      0.24995622530694
  Br          3.19809839239951     -5.66977759817652     -1.80960024371219
  H           2.68034593721834     -3.72332711826314     -0.29871667713910
  H           0.32415545622522     -4.91462490309507     -1.88264625503019
  H          -0.76022762989002     -3.71812636116572      0.11189018925641
  H          -0.62913947579380     -2.70219180472602     -1.34018146613113
