14
Coordinates from ORCA-job NEB_product E -25.933855903170
  C           2.42619146563097     -1.76012768059547     -0.46970537902063
  C           1.27646546798980     -0.82573238569526     -0.16754829987034
  Br          3.05806594829507     -1.22205706701835     -2.24485160933935
  H           3.25600176240660     -1.58927097803418      0.22126952445249
  H           0.44859495811578     -0.90512424156029     -0.89538994878236
  C           1.97851928629631     -3.21408338764165     -0.44486752418924
  C           0.90476255544277     -3.54385961988210     -1.42175042396430
  C          -0.23879763219243     -4.10883607834596     -1.07965491169354
  O           1.26105226387604     -0.06018852049849      0.74802873643586
  Br          3.55411803560586     -4.36961184616043     -0.81596021211063
  H           1.67713809038533     -3.46865092536515      0.57568465899544
  H           1.13166693644570     -3.31902653487316     -2.45538312466581
  H          -0.47159117887413     -4.35664963938062     -0.05656081469768
  H          -0.98928795942367     -4.34488109494889     -1.81311067154991
