20
Coordinates from ORCA-job NEB_product E -53.403549768390
  C           3.12116889899033     -0.27836496261760      1.69076187554678
  C           1.77198617080972      0.36796759890143      1.91435667314346
  Cl          3.01869076859470     -0.72267425854831     -0.04183037847891
  H           3.93631208025552      0.44062391745370      1.78908862655137
  C           1.75900883826072      1.89279642617826      1.71759833636261
  C           3.33241843403335     -1.49521175423031      2.60726538301846
  C           2.69313936836894     -2.74974352094408      2.06957996029483
  C           1.59778269788099     -3.27691723917845      2.57895646172568
  O           0.78765481929483     -0.21425770237711      2.25521526897628
  C           4.82243693504840     -1.72725739229244      2.86806974180720
  H           2.86999777897824     -1.25256759858634      3.57122366096588
  H           3.19321389088131     -3.19839222125055      1.22447795081636
  H           1.08507285701489     -2.83298894513434      3.41523039059542
  H           1.16156630612934     -4.16831154612728      2.16412108669504
  Cl          2.49415603620180      2.46782129181527      3.25078619267839
  Cl          2.72914883656301      2.46067317947231      0.35911309552532
  Cl          0.11114893700414      2.49816309047614      1.58269746546207
  Cl          5.02161945291480     -3.14519552075396      3.91970655462381
  Cl          5.72025448906025     -1.99733950257517      1.36503507071932
  Cl          5.53292240371471     -0.31582333968118      3.70054658297064
