20
Coordinates from ORCA-job NEB_reactant E -53.402509919110
  C           2.49816940521869      0.39765396384536      0.82797682866701
  C           1.67106416133728      0.17841900414621      1.85157561854970
  Cl          3.17222880256992     -0.76649754947781     -0.23920691641394
  H           2.82025756072905      1.39917409952692      0.59922336974907
  C           1.19742827322915      1.32777442311123      2.71587759142273
  C           3.73057694637717     -1.89922018864843      3.01070408522016
  C           2.98001464072730     -2.54989847885883      2.13516466985363
  C           1.53885810591822     -2.22800964945469      1.88232957445821
  O           1.13316829818836     -0.95647362265584      2.35456796025244
  C           5.17477856548221     -2.13374742390179      3.25339533760111
  H           3.32565585271057     -1.09401247825656      3.60834844017448
  H           3.37765255888854     -3.36266643499788      1.54633242769938
  H           0.90482878540482     -2.92753937491952      2.43915631392503
  H           1.31132868347723     -2.33563566717164      0.81660849121103
  Cl          2.02223783950654      1.20910193656184      4.29792624133837
  Cl          1.52512040891130      2.92219921700978      2.04385203549913
  Cl         -0.55285148662285      1.18461830473603      2.98393250665400
  Cl          6.07509861805592     -0.66248945941749      2.76053340752974
  Cl          5.45793971559636     -2.39818970381625      4.99634553645096
  Cl          5.83794426429422     -3.50936091736065      2.36445648015775
