20
Coordinates from ORCA-job NEB_reactant E -48.307627549570
  C           2.20953705057295      0.44366378776551     -0.20267892059168
  C           1.53940653824450      0.74610118930077     -1.31572520626600
  Cl          2.97077733635146      1.52111837490491      0.90528534677465
  H           2.31824972763406     -0.58713272917836      0.09095350875921
  C           0.93830280333393     -0.39564725156473     -2.12290865618408
  C           4.07898440843312      3.97192744757843     -0.96799844047542
  C           3.27568570739380      3.20447588454357     -1.68667868423925
  C           1.79458384903340      3.13618004475207     -1.47894858432768
  O           1.24688137640940      1.91264129348892     -1.92472873622803
  C           5.54470931837212      4.07767427364329     -1.11487221765975
  H           3.68581327860159      4.58978301676876     -0.16922602693714
  H           3.64839047870150      2.57758976183292     -2.48621174413630
  H           1.30712254229823      3.88323986851054     -2.11690028311433
  H           1.52513755207712      3.33780396041724     -0.43730034332989
  F          -0.40277648277869     -0.26146552434307     -2.20951818535761
  F           1.40998347778505     -0.37432865467475     -3.38864017552703
  H           1.15517106979136     -1.38476310543521     -1.69404697708899
  Br          6.04056622972917      5.95896174399983     -1.44946517526776
  Br          6.39654397808428      3.52467437633211      0.57954980135350
  Br          6.30392975993163      3.00050224135720     -2.53624030015643
