18
Coordinates from ORCA-job NEB E -29.569620791950
  C          -0.21323307209695     -1.35719058346597      0.09173988986165
  C          -1.55912662583846     -1.03387009623940     -0.11098857829300
  O           0.20403061378329     -1.50051764264285      1.38480830328562
  H           0.23894934333605     -2.03991632631764     -0.62551435691434
  Br         -2.13246705232300     -1.33277242534071     -1.98178013587523
  C           0.54482544500536      0.41658118483642     -0.44745841434969
  C          -0.15961395876669      1.25517170392012      0.40967896268438
  C          -1.55386209763360      1.40453156005635      0.23521021649026
  O          -2.17456101322489     -0.14110256843523      0.52295519025849
  C           2.02689423987032      0.23143191021254     -0.27028192147883
  H           0.22217216712473      0.37502549852283     -1.48368458302419
  H           0.25499609991879      1.45351539451806      1.38797165225172
  H          -1.91839099850080      1.53440448714263     -0.77996568944909
  H          -2.09395495147954      1.99061271361657      0.96571658184066
  H           1.09679568551660     -1.86040950639962      1.40638788649551
  H           2.37985184518904     -0.66961788552025     -0.76807492099567
  H           2.29426741365944      0.19509793970116      0.78380920418034
  H           2.54242691646032      1.07902464183500     -0.72052928696860
