18
Coordinates from ORCA-job NEB_reactant E -29.591320736920
  C           1.56034708284275      0.02398067584099     -0.11097959372292
  C           1.45572401227654      0.72996323618225     -1.23576092118747
  O           1.50636718467496      0.59948169457347      1.13448123879414
  H           1.69714079716629     -1.04535658854434     -0.16808818352414
  Br          1.55412749314688     -0.24165816177392     -2.87833638013184
  C           4.22291166273450      3.81425582346063     -1.54064790190214
  C           3.52133607414267      2.85175867346009     -0.96572522310702
  C           2.06072463726717      2.94997169219051     -0.65169711448340
  O           1.28401251771578      2.04323300675510     -1.44483058456314
  C           5.67317398072582      3.72631979446159     -1.87000119541850
  H           3.74203726587237      4.75080790549062     -1.79355779989368
  H           3.98789345669898      1.90721587457069     -0.71557655160972
  H           1.66754157666938      3.93363506768118     -0.91454532512248
  H           1.87863806171525      2.75011195616425      0.41042356130979
  H           1.56760357247238     -0.08362160341320      1.80844168496491
  H           6.08274344338846      2.75999588166348     -1.58732305896487
  H           6.22392587229238      4.51048984048498     -1.35121325549352
  H           5.82095130819747      3.87321523075161     -2.93936339594401
