18
Coordinates from ORCA-job NEB_product E -29.614397919090
  C           3.20761801629149      0.91099678251494     -1.14837344626368
  C           1.71295926387715      0.76364126657961     -1.19204385548381
  O           3.71022764638163      0.37487685922061      0.03657037883639
  H           3.66540763452385      0.34261720643329     -1.96556301666162
  Br          0.98651597804339      0.99675347807095     -2.99269129313271
  C           3.55128584355576      2.42253255568723     -1.33698621930146
  C           2.89849529789318      3.23429556585106     -0.25568627612039
  C           1.87387940424657      4.04153777747561     -0.45461537098536
  O           0.97843708888852      0.57808901169856     -0.28526938566879
  C           5.06870251929363      2.59133038339539     -1.30980328845462
  H           3.16538305272766      2.73496872967763     -2.31155101312829
  H           3.32714249886400      3.12315124641026      0.73215300314934
  H           1.43645177799518      4.17523153190600     -1.43093729973908
  H           1.43009335964148      4.60541999962068      0.34746238418725
  H           3.17345322875882      0.68329452579252      0.77848310262148
  H           5.52296144414126      2.08212997154724     -2.15594039431901
  H           5.47678997655234      2.17156814821010     -0.39350734983107
  H           5.32189596832411      3.64726495990832     -1.35880065970457
