20
Coordinates from ORCA-job NEB E -41.545986799450
  C           0.73604074048683     -0.88854573390024     -0.29250711858901
  C          -0.62499835741804     -1.13267394527924     -0.03466575649912
  O           1.65672494498547     -1.16866783426962      0.67488968720030
  H           1.13953553295461     -1.07173569510624     -1.28117813803090
  C          -1.57824278337322     -1.33462396214433     -1.20491165903854
  C           0.70804886252584      1.12935990853722     -0.21219072305386
  C           0.20238700271184      1.27893705787186      1.09916994539552
  C          -1.10683684366277      0.97984364246850      1.39812476724522
  O          -1.09106930079045     -0.91434176227522      1.11840352663364
  N           2.01068990025282      1.49217983970403     -0.47760484923038
  H           0.03142368968423      1.31216274808449     -1.03813863482111
  H           0.92789116055282      1.31685565896513      1.90143928817260
  H          -1.87839095481594      1.13402945378304      0.66049282544935
  H          -1.43895201081288      1.00013378517106      2.42233817641203
  H           1.17953948582545     -1.24407338005774      1.51649125086822
  Cl         -1.13964354594358     -0.39474527954018     -2.65063175226730
  Cl         -1.50772579413208     -3.06567908155648     -1.66117715122532
  Cl         -3.23776840857155     -0.93539166786702     -0.75347964670690
  H           2.67736883443192      1.20972230095600      0.22809981248995
  H           2.33397784510868      1.29725394645496     -1.41296385040437
