20
Coordinates from ORCA-job NEB_reactant E -41.566108948350
  C           2.21834301438052      0.40077777124034     -0.35509197338737
  C           1.39115271125801      1.23698206589622     -0.99381922283814
  O           2.61768790690753      0.57651414855621      0.93654211209899
  H           2.60243393021163     -0.46309128752397     -0.87606348768098
  C           1.00353365763069      1.00282238620343     -2.42587993548997
  C           2.91276922801505      4.60514463419139     -1.27774842321824
  C           2.88781640302288      3.65469935328319     -0.34357303559699
  C           1.61980352260167      3.22811284464344      0.32328422810213
  O           0.82383738832688      2.38163972441163     -0.52807184684595
  N           4.04157985696640      5.06712731359915     -1.91351131020339
  H           2.00653405951393      5.13727788641695     -1.53458278804288
  H           3.78557329677241      3.10868035956374     -0.09378556170027
  H           0.95670882682652      4.07683048618594      0.50410949790494
  H           1.82558206492257      2.71222540422015      1.26394980912038
  H           3.23581435110209     -0.11764327920399      1.18597369755190
  Cl          2.02479233780394      2.03797747253098     -3.47753500459641
  Cl          1.20671366605851     -0.66659094565787     -2.95837490422771
  Cl         -0.68762491549712      1.46728033023197     -2.68517102785973
  H           4.84914580900887      4.46566038961706     -1.85040069853982
  H           3.90540288416702      5.47247294159403     -2.82505012455048
