19
Coordinates from ORCA-job NEB E -41.056334668660
  C           0.22438319269892      1.03848310195172      0.83663448507515
  C          -1.14676269032672      0.71638332295756      0.92771170773508
  Br          0.61881717370492      2.62488381704977     -0.13889717486078
  H           0.83903327773819      0.96162077389348      1.72402204598253
  N          -1.56012688443872     -0.11651737623759      1.94475450141842
  C           0.71796191846546     -0.48085389692053     -0.33899489938519
  C          -0.09278917217258     -0.27171173700650     -1.45940411411473
  C          -1.49423002491127     -0.34039697778492     -1.25934305164466
  O          -1.89067149680852      0.81082651220374     -0.11744408062466
  C           2.21076903968412     -0.53088473098484     -0.49931638886168
  H           0.39417000512553     -1.24294021788202      0.36786184045428
  H           0.28652270687354      0.33102766888366     -2.26975320246279
  H          -1.86670617293793     -1.21577998560760     -0.73448085804430
  H          -2.12158140083334     -0.04041547683854     -2.08787026042201
  H          -2.54360191420802     -0.33534767744433      1.95790334354747
  H          -1.11481739748763     -0.04058599644922      2.84307570584726
  Cl          2.61956116102722     -2.16559228277472     -1.13265756553206
  Cl          2.86705324161865      0.65968213103367     -1.62488482908797
  Cl          3.05301543718818     -0.36188097204278      1.06108279498062
