19
Coordinates from ORCA-job NEB_product E -41.118115614190
  C           3.01857414776667     -2.14062666526764     -0.87907707543629
  C           1.53539986121776     -2.54153637233662     -0.75702050900660
  Br          3.28974056251043     -0.32200578650053     -0.22357428896692
  H           3.59265884439092     -2.78117927303072     -0.20221527491027
  N           0.92580388422566     -2.14158496637806      0.36876149524496
  C           3.50038663882798     -2.32736907956066     -2.32270039588971
  C           3.22182462061861     -1.11366137873754     -3.17057511717309
  C           2.14178352379055     -0.99949503337857     -3.91843362081074
  O           1.00265040783597     -3.22591651155407     -1.59827137348559
  C           4.97084233600857     -2.72475223316006     -2.40743657156213
  H           2.91367817284206     -3.16936718376676     -2.71687906215707
  H           3.95074138665916     -0.31798183209685     -3.10786840218118
  H           1.40811390214190     -1.78662545734211     -3.97586503339296
  H           1.94645993884461     -0.10979779489390     -4.49106591366216
  H          -0.04399826624868     -2.38035447790256      0.49470888701834
  H           1.35954969218196     -1.51774300163057      1.02864394678489
  Cl          5.40960281411291     -2.96282610846082     -4.11824061905346
  Cl          6.05408201371821     -1.49970966236580     -1.71690189735612
  Cl          5.25710551855475     -4.26566718163615     -1.54788917400389
