16
Coordinates from ORCA-job NEB_reactant E -29.567109993200
  C           1.35750597315415      0.00340542281847      0.01754703646659
  C           1.60190310067545      1.08042666698876      0.76502620293685
  I           0.72566329253939     -1.79609422153482      0.88841131750720
  H           1.46311325594983     -0.01231775851094     -1.05026655990045
  N           2.10431177236940      2.26485130881465      0.24928030015173
  C           3.76568723595423      2.70062042299750      3.89828445688475
  C           3.56040738123349      1.87491553476077      2.88664560302579
  C           2.52650926788607      0.78903073200651      2.92688147418003
  O           1.39118987893620      1.08689489960155      2.11700353443771
  Cl          4.92903673958194      3.96374299534191      3.84966809137700
  H           3.23370351735265      2.63724501423790      4.83551121586274
  H           4.10955640401021      1.98187587757384      1.96225687984605
  H           2.11946138886141      0.67213972763431      3.93286573950311
  H           2.97280867049893     -0.16023396203303      2.60306040074833
  H           1.89519622401911      3.07718893600414      0.81085677529246
  H           1.97264589697754      2.40580840329845     -0.73983246831988
