20
Coordinates from ORCA-job NEB E -42.481722816880
  C          -0.56300235634744     -0.33612634447074      0.18825319274370
  C          -0.48471907700563     -0.94283145355330     -1.07687982467117
  N          -1.50207720346205      0.86748511397018      0.45443649175621
  H          -1.76034353679710     -0.26740596961742      0.68137961561739
  C          -1.65278718745323     -0.58820255402781     -2.04466538009260
  C           0.67820940765104     -0.37731388005438      1.06493793788693
  C           1.66760976752591      0.69241698810051      0.65678637891699
  C           2.84655726842028      0.41973877558009      0.13440598849063
  O           0.33786464106665     -1.77796029322129     -1.42820974399326
  C           0.31578443767208     -0.19700717123325      2.45118617271875
  H           1.13637152192978     -1.36343469790515      0.92952218031627
  H           1.33958504691164      1.71467588297670      0.79579656564036
  H           3.17947834891896     -0.59323143774560     -0.01550708011828
  H           3.51960803741872      1.19975763458442     -0.17710666682404
  H          -1.17286169764276      1.43314956214796      1.22898684359583
  H          -1.74507034381671      1.42792701694995     -0.35752006588501
  F          -1.66629232602871     -1.31702334338545     -3.14532876879937
  F          -2.86207315435840     -0.72966377970132     -1.44561678915246
  F          -1.60184276457150      0.71512770614172     -2.42076945107103
  N          -0.00999883003150      0.01992224446418      3.52591240292416
