20
Coordinates from ORCA-job NEB_reactant E -42.575366932310
  C           1.40259185124332      0.13272542164678     -0.17667940740013
  C           2.00802599306774     -1.02597642857603      0.13887005760064
  N           2.05183625810934      1.31944926567054     -0.31329631495292
  H           0.32872456689494      0.15221053540132     -0.28903732974029
  C           1.19114191992575     -2.26970112263238      0.34649657739005
  C           4.40397432757469     -3.21727520048103      2.60280897589136
  C           3.59859881810389     -2.16738351489790      2.45262877722266
  C           3.93081033913338     -1.00982385773248      1.56103671405252
  O           3.38005365158744     -1.14377689687092      0.24387501579215
  C           4.07665472779041     -4.31255226211782      3.42636497811065
  H           5.36092417396058     -3.27990909714320      2.10033641910235
  H           2.64073481378688     -2.14095578549293      2.95482857502555
  H           5.00819912042260     -0.95525455504415      1.38593093569600
  H           3.57852409045988     -0.07275950424081      2.01244571519974
  H           3.05466095517146      1.26045294048824     -0.40600778721400
  H           1.60301081067992      2.04171016031991     -0.84940892254612
  F           1.91792536237346     -3.38594745872848      0.27958445885058
  F           0.56490661064751     -2.29503899857964      1.55083066658829
  F           0.20148232147612     -2.38496661219934     -0.55973090730012
  N           3.82991928759067     -5.20582702878969      4.10102280263104
