20
Coordinates from ORCA-job NEB_product E -42.557182818960
  C           2.37111442821601     -1.40770292325446      0.84833073233393
  C           1.83734559109844     -2.66667478161691      0.18920294016648
  N           1.37386263911638     -0.70539895133128      1.61510399084723
  H           2.77300674343787     -0.82209140181074     -0.01088348254895
  C           0.32393255600221     -2.64328850648382     -0.17888833523836
  C           3.58579600738282     -1.79058616891095      1.73647755355616
  C           4.40148174128934     -0.58220490543032      2.11650578170056
  C           5.58105853441495     -0.31372067767264      1.59094592828688
  O           2.50345026661233     -3.60943188470135     -0.12374877879144
  C           3.12027620781549     -2.46150994875783      2.93286963162009
  H           4.20598478683643     -2.49468129977332      1.16900736669332
  H           3.96388547053755      0.06568459144395      2.86389156870937
  H           6.03904168832719     -0.95708895490090      0.85728510306734
  H           6.14034241536044      0.56035694792248      1.87577669723155
  H           0.62027844972608     -0.33852108554350      1.04857418269156
  H           1.78501083290749      0.06242752017319      2.12997581801817
  F           0.01115069485519     -3.65358706955520     -0.98513167942894
  F          -0.47100852845152     -2.71286077503461      0.88810841220695
  F           0.01074652947864     -1.50735725569310     -0.83532220166775
  N           2.78824294503666     -2.98226246906871      3.89271877054587
