27
Coordinates from ORCA-job P E -43.536738672360
  C          -1.28528532981648      0.51921403552941     -2.40746027694054
  C          -0.75463587649926     -1.62059829757701     -0.44807616754796
  C          -1.25019859249606     -1.89024584856900     -1.83398775678129
  C          -1.49837766362206     -0.93688991377515     -2.71467089417776
  C          -1.17422410818873      0.76357196637390     -0.90074764434339
  C          -0.14727409058306     -0.22069793943487     -0.31944781238285
  H          -1.41733485808046     -2.92632762448617     -2.09149140321442
  H          -1.85123766101711     -1.16637831679984     -3.70936739646825
  C          -2.42191859725718      1.34378499922861     -2.98806742534817
  H          -1.60226905308477     -1.68401776926034      0.24253714353233
  H          -0.36413046340619      0.85900249448665     -2.89658471968052
  H          -0.04814452182935     -2.39175143447601     -0.14091768425570
  H          -2.14323718771189      0.59377851770024     -0.42842739624444
  H          -0.01303798045181     -0.00758119341718      0.75718380556839
  H          -0.88295939521944      1.79747807774921     -0.71645917094334
  N           1.12001058072528     -0.03486680649599     -1.03003889718627
  F          -2.53041435026471      1.21016796477794     -4.32019944812688
  F          -3.61957713646824      1.01407404396571     -2.47806032105802
  F          -2.26660036994102      2.65972919457852     -2.75752607052112
  C           1.95573657845923     -1.20791840347238     -1.17001122393527
  C           1.87580168824849      1.06421240925140     -0.46512841002009
  H           2.25883955175675     -1.64811151396351     -0.20689998005511
  H           2.85853172275593     -0.91565335666935     -1.70511818488667
  H           1.44276285596276     -1.95767644607817     -1.76781399037674
  H           2.24125761147010      0.84837036234827      0.55190843535773
  H           1.26018354936051      1.95977761215873     -0.42562667880597
  H           2.73340309719879      1.26919318632636     -1.10417043115766
