27
Coordinates from ORCA-job R E -43.451449413420
  C          -1.52989199225828      0.01912176960698     -2.82933542122668
  C          -0.73390290304109     -2.70057047866982     -1.82986349407684
  C          -1.98027527483395     -2.25853931442331     -1.96731295235618
  C          -2.36569026859885     -0.94453226091734     -2.44304693702389
  C          -0.87426528261908      1.07938983807252      0.24501885176531
  C           0.00582631463019      0.09088036959646      0.12357102442932
  H          -2.80568224922269     -2.90847180945859     -1.70920745799700
  H          -3.43021912666543     -0.75068021532540     -2.47202736381516
  C          -2.01121596530139      1.33773496860460     -3.32915604063955
  H          -0.53145192107701     -3.69378447218428     -1.46712831811586
  H          -0.45770436683460     -0.08469771220210     -2.83134137311545
  H           0.12105278367664     -2.09297911596244     -2.06769088609440
  H          -1.80899691565081      0.90677040047691      0.74569728597767
  H          -0.22026054819530     -0.87856521787882      0.54985854652141
  H          -0.71833029952094      2.06746629725131     -0.14546893618109
  N           1.19676682475495      0.10237410719165     -0.57670097649801
  F          -1.96102707662453      1.41813051136921     -4.67855281161068
  F          -3.27644741238120      1.62001384906424     -2.99011680727964
  F          -1.25756502002002      2.35875147342327     -2.88204857374724
  C           2.22512526598095     -0.81156229297769     -0.13652253609120
  C           1.70376936840183      1.37070213863868     -1.04747087586664
  H           1.77470140409264     -1.75846006068044      0.15677075991283
  H           2.79703917075515     -0.41935830659847      0.71542666210079
  H           2.92031638816420     -0.99511559356177     -0.95813066737464
  H           2.04739040066154      2.01408716458668     -0.22740008458153
  H           0.92583356012716      1.89591945234086     -1.59676598435315
  H           2.54182514159991      1.18701451061710     -1.71982463266248
