16
Coordinates from ORCA-job NEB E -27.349842905220
  C           0.92130904397712     -1.02035676014370      0.42631706990346
  C           0.36884088059044     -1.15867765172563     -0.83605789396436
  H           0.38337236194362     -1.43425817475922      1.26174943577927
  H           1.99692625826942     -1.03100360147159      0.50648451935521
  O           1.18359368222468     -0.99985896086243     -1.91363148124658
  C           0.31512967377868      0.89919860701201      0.71262906568466
  C          -1.06034270995146      0.80578874170080      0.51723322509867
  C          -1.50737176752677      0.41995266530187     -0.77563462957929
  O          -0.90919395402861     -1.09916075376836     -1.02737072333269
  C           0.81489360904368      1.16792348107485      2.01379003931135
  H           0.93365963269988      1.31131493036416     -0.07951099499408
  H          -1.68603802805481      0.57914689550753      1.36798305608077
  H          -1.06350432217027      0.94813106886036     -1.61650614734357
  H          -2.56890036688782      0.25090871440640     -0.90019873888643
  H           0.65209965843738     -1.00398569127905     -2.72149345024236
  N           1.22552634765484      1.36493648978200      3.06421764837599
