16
Coordinates from ORCA-job NEB_reactant E -27.376797879360
  C           1.48010298115042      0.64731861337147      0.51870777119471
  C           1.64518773269543      1.05858438771993     -0.73048439019406
  H           1.01938919239350      1.24757479694368      1.27603006777137
  H           1.83506660161407     -0.32496425642837      0.79520327626693
  O           2.24699441641031      0.29652742961104     -1.66821164767597
  C           0.87645571949136      4.27084071362397      1.74585221287055
  C           1.37827895642241      3.76376705050721      0.62115577640582
  C           0.54382287419238      3.15864240022459     -0.46435519516293
  O           1.25626822835067      2.25501291423420     -1.27607889785762
  C           1.68644777191690      4.87137561486014      2.72875064131659
  H          -0.18461809330700      4.25106655693756      1.96107652542150
  H           2.44266373767038      3.79222685281511      0.43067336400520
  H           0.22666907012310      3.94962191257588     -1.15588132486371
  H          -0.35371867599291      2.67853824253315     -0.05133890552235
  H           2.25109552511405      0.78625772053560     -2.50083147693155
  N           2.33679396175494      5.36260904993483      3.53503220295555
