16
Coordinates from ORCA-job NEB_product E -27.407931063010
  C           1.78464966435033      1.64790971233111      0.08193751886951
  C           2.70501575394500      1.93147204612627     -1.08446925907589
  H           0.99711432363586      0.97760880814078     -0.27349518716909
  H           2.34632124298459      1.13496923983543      0.86374072758104
  O           3.71190670150688      1.05667782742250     -1.13946863175950
  C           1.14323610686110      2.94665923108825      0.60086856696451
  C           0.04279379492184      2.66297933148528      1.58849550171265
  C          -1.19330759502981      3.10133634617573      1.45229022254430
  O           2.55736093986796      2.81411995684769     -1.88385740649645
  C           2.15644876232591      3.75052018797053      1.25192494096348
  H           0.75635570765270      3.51739742095327     -0.25168877159387
  H           0.33553409104792      2.06849665552558      2.44359145820111
  H          -1.49627052497693      3.70066855437234      0.60918802043918
  H          -1.95555536629216      2.87969873874144      2.17911104047280
  H           4.29095721098015      1.24405892125293     -1.89567436924543
  N           2.95293918621866      4.36712702173090      1.79110562759164
