18
Coordinates from ORCA-job NEB E -41.305080499330
  C           0.24610259234535     -0.04905462241980      0.16232756807410
  C           0.54681811908307     -0.63231608885845      1.41162910389568
  C          -0.18950451732617      1.29913915063546     -0.07061542092653
  H           0.81049539740044      1.62595930169338      0.40738994143914
  C           0.56972813985430      0.30044264142344      2.65674345177326
  C           0.51186376569610     -0.85397428465485     -1.08788400491711
  C          -0.34602382860974     -0.46096504713200     -2.24724298764913
  C          -1.65021147116411     -0.26276288408942     -2.15386269909035
  O           0.70896581963343     -1.81764918997425      1.62060215626310
  F           1.84705273492849     -0.76256273525444     -1.43953089058261
  H           0.35220544799766     -1.90595100978132     -0.79526562943533
  H           0.19103875845098     -0.31411924571764     -3.17252059652039
  H          -2.18804384061863     -0.40841739585648     -1.23191854382344
  H          -2.23189526392519      0.03559050045509     -3.00702948089870
  N          -0.90192928210658      2.07747130820537     -0.60862319029429
  Br          1.80465203602665      1.83244753871571      2.40617429241652
  Br         -1.22842647511390      1.00149861770901      2.96020755164416
  Br          1.14711186744786     -0.70477655509880      4.18941937863192
