18
Coordinates from ORCA-job NEB_product E -41.390896984840
  C           1.77148368932667     -1.40676944373939     -0.62966984838059
  C           2.66009594396386     -1.84622445762496      0.51853754587295
  C           2.43844199799692     -0.32530294083592     -1.32748046440802
  H           0.79342395607552     -1.05444926820408     -0.28442577227451
  C           1.98030488934118     -1.83756244965446      1.88861124614657
  C           1.52314467776075     -2.60180822801239     -1.60297415865314
  C           0.64129032306741     -2.16016649316851     -2.73300634360024
  C          -0.66012953011513     -2.37327524589377     -2.75502618266646
  O           3.79995812324914     -2.17775702115147      0.42064668685439
  F           2.72313631096332     -3.05095684899228     -2.08035709717977
  H           1.07288294811835     -3.43353687880905     -1.04352436303701
  H           1.15689728894111     -1.63869789325708     -3.52636355295834
  H          -1.16721392069968     -2.89628186552893     -1.96002691629661
  H          -1.27005087137937     -2.03236071351037     -3.57237409719958
  N           2.97312113123336      0.52686874762521     -1.86386226345177
  Br          1.51786620014883      0.01962679393388      2.30911267701976
  Br          0.35509932538422     -2.91100438754174      1.83733678318362
  Br          3.18004751662355     -2.54144140563467      3.22674612102877
