17
Coordinates from ORCA-job NEB E -33.471370758870
  C          -0.99472734329182     -0.30448128985292     -0.26073342772341
  C           0.33086874405596     -0.60098631798058     -0.70295593876794
  I          -2.02803413711821      1.15110754833597     -1.56794829784288
  H          -1.64543799480685     -1.17467742548794     -0.27308807649051
  C           0.79129742833763     -1.99772719026410     -0.97626917617190
  C          -0.89255627555250      0.31539000276922      1.20796942693382
  C           0.04710647931110      1.41858037211196      1.18682561643334
  C           1.09288287942795      1.46620273161899      0.13883061363182
  O           1.31272278516370      0.31183731660257     -0.63241602538261
  Cl         -2.51925723209125      0.82435517520282      1.81155332410442
  H          -0.63216661985590     -0.53388137715382      1.84599148583266
  H          -0.31795613125130      2.38745066527870      1.48908051562690
  H           2.07881738095939      1.68082272140839      0.56837162668837
  H           0.86373786937733      2.29955687616690     -0.54405811630383
  F          -0.16435519622293     -2.70015768459732     -1.66170868110589
  H           0.97496422958057     -2.55998490038691     -0.04620637169664
  H           1.70209313397712     -1.98340722377194     -1.58323849776572
