17
Coordinates from ORCA-job NEB_reactant E -33.519492303290
  C           0.62463270905415      0.77594142829261      0.03659014653692
  C           1.79652481149303      1.40477996731619      0.05878585744343
  I          -0.38679276328882      0.35234795407509      1.81781996293773
  H           0.15502397264780      0.41611946495241     -0.85801306310092
  C           2.54062091680701      1.67926671567783     -1.22399411331718
  C           1.18690233770933      4.28808744763208      1.34464078690341
  C           2.49588800836314      4.15379369349775      1.22260840921160
  C           3.21011503763662      2.83765578397783      1.35089625355553
  O           2.35755604691631      1.71443863826949      1.25580738280144
  Cl          0.39452101613427      5.80022695361559      1.18678943509820
  H           0.51709053651350      3.46995732698682      1.55978181662245
  H           3.12918909110909      5.00278335624803      1.01648572210115
  H           3.65807314945526      2.75466285001330      2.34755723297025
  H           4.01901896141383      2.79194940515167      0.61127080488340
  F           2.55150239131492      3.01954160856962     -1.53385753742292
  H           2.05827213458001      1.16597451337003     -2.05952994937285
  H           3.58796164214055      1.36387289235366     -1.14463914785165
