17
Coordinates from ORCA-job NEB_product E -33.526530364990
  C           2.12092671092434      2.24985532359017     -0.10404689606332
  C           0.80323691345770      2.43655305517533     -0.84157743237596
  I           2.01397684645628      0.24249138293881      0.71392792572817
  H           2.97629181321709      2.24851521166079     -0.77904285567509
  C           0.88535317408406      2.04735949340977     -2.30681495990656
  C           2.29495675909757      3.26552465089735      1.00645127433016
  C           3.49582722025283      3.03545472683098      1.85555720597536
  C           3.45619265046030      3.00380008248898      3.17508440604370
  O          -0.18758063279244      2.83568029786316     -0.30408957782329
  Cl          2.48016180039994      4.85557047322266      0.15880905708273
  H           1.38145288973791      3.34042445750134      1.60215792372293
  H           4.42530968973306      2.90833237670189      1.31757242437403
  H           2.53575206479375      3.13703158575491      3.71909355511520
  H           4.34194127256611      2.83588833449151      3.76172545579939
  F          -0.33134621484857      2.11765769478625     -2.91052366769003
  H           1.25082000415479      1.01845000343787     -2.41406931394754
  H           1.55662703830527      2.73901084924822     -2.83211452468987
