15
Coordinates from ORCA-job NEB_reactant E -30.171960116660
  C           2.06201898690263      0.14540143031482      0.22638862065444
  C           1.32730528896400     -0.95282271611146      0.47082114957563
  Br          2.84667119333260      0.43861929345983     -1.44905417453666
  H           2.23705015482292      0.90395388503839      0.96853052520250
  C           0.75995606970216     -1.10945005544232      1.76282623482133
  C           0.52434886863935     -5.18919669315264     -1.31059277633286
  C           0.27282047350129     -3.89586123607137     -1.35402128389385
  C           0.33593132816263     -3.01441232064689     -0.14594248846491
  O           1.12944436208706     -1.88945276070127     -0.48494942107954
  I           0.40229156904032     -6.43565238415141     -2.99196964190816
  H           0.78906928009095     -5.71332092981829     -0.40731155215794
  H           0.01940349755787     -3.39180460017331     -2.27479353254897
  H           0.76694340313117     -3.54846909330318      0.71134837501059
  H          -0.67978304672201     -2.68620555108563      0.12518573634833
  N           0.29602857078707     -1.24282626815527      2.80283422931008
