22
Coordinates from ORCA-job P E -28.301930345180
  C          -1.37185484959612      0.54385455183423     -2.28619447583720
  C          -0.40193475701147     -1.75900828072084     -1.11487928289486
  C          -1.72563632490045     -1.79109700132694     -1.81008776687781
  C          -2.17892484615979     -0.70542820051413     -2.41639315668233
  C          -0.98784824506683      0.72040186815431     -0.81817986300364
  C          -0.16821363129600     -0.47307995374225     -0.29003090885209
  H          -2.26496569938072     -2.72500726959844     -1.84103772187687
  H          -3.11124085807534     -0.67093660349001     -2.95506037297944
  Cl         -2.29748155921784      1.97082465248025     -2.84265857685653
  H          -0.29076577679823     -2.63300631239727     -0.47359773785613
  H          -0.47670105781522      0.50541054928533     -2.91586325551127
  H           0.37379455423108     -1.81647605824867     -1.88613734395212
  H          -1.91341819425193      0.81505244013634     -0.24708987796527
  H          -0.49465642649039     -0.66797451653584      0.73622463497707
  H          -0.42416783623368      1.64582120351592     -0.69324372094641
  C           1.32497517186152     -0.12506029511013     -0.24485476619199
  C           2.17368458786290     -1.21273723024548      0.40415257440039
  H           1.45107411103782      0.79815649476996      0.32560489795655
  H           1.68388079841856      0.06181750288396     -1.25977026519493
  H           1.80860223196528     -1.43107655717741      1.40539799425922
  H           3.20753233897454     -0.88441248599973      0.48200132815136
  H           2.15336626794230     -2.13058849795314     -0.17711233626569
