22
Coordinates from ORCA-job R E -28.211806478280
  C          -0.48914053338338     -0.11198125598020     -3.09881602193539
  C          -0.82408347884662     -2.96774431992942     -2.19205623987054
  C          -1.54753484032648     -1.92362820491644     -1.80243440138221
  C          -1.49020950537547     -0.58788038911554     -2.36611104168100
  C          -1.27202868541235      1.05606640772757      0.49101942920468
  C          -0.20241388181224      0.35668822002324      0.81968313068765
  H          -2.26901539495624     -2.04480200801828     -1.00550510047839
  H          -2.33015719758952      0.05380579202714     -2.14217671005322
  Cl         -0.48417348599275      1.48468217454661     -3.72880458472726
  H          -0.92771387944633     -3.92970801966896     -1.72038764047608
  H           0.40208907612367     -0.67105364011571     -3.33924853827137
  H          -0.11614573764842     -2.90669175122213     -3.00047906578787
  H          -2.22158075829294      0.90639511842560      0.97551024183296
  H          -0.26437657804092     -0.40195425424446      1.58874475353157
  H          -1.23144663425819      1.82417659304914     -0.26380506851657
  C           1.14808760407923      0.52320607478349      0.20122757210275
  C           1.77566847497010     -0.82098881408719     -0.15711580882483
  H           1.80232036678073      1.03813397193844      0.91272192589762
  H           1.06965570519205      1.14810875309041     -0.68975084897042
  H           1.92193506622048     -1.42319545825709      0.73758978174481
  H           2.74370396171526     -0.67727627090566     -0.63162310559140
  H           1.12935033630033     -1.36813871915053     -0.83796265843547
