22
Coordinates from ORCA-job TS E -28.193920051790
  C          -1.28482140546871      0.98107086887880     -1.72485130834296
  C          -0.23436662337426     -1.39839528918219     -0.56359664345443
  C          -1.54614607929958     -1.26539909601287     -0.88505505176171
  C          -2.06810821652564     -0.10709863908172     -1.49533977847250
  C          -0.68755308113663      1.38627973942202      0.42933307419850
  C           0.06679047900117      0.36056754335880      0.90515654348133
  H          -2.26044889836610     -1.98427308900947     -0.50820884978195
  H          -3.14086006952653     -0.00778729669607     -1.57537030192422
  Cl         -1.98416605954967      2.44845606870984     -2.30737568776539
  H           0.08695246674770     -2.26277657490253     -0.00665479202463
  H          -0.22833387870402      0.92365693146324     -1.92015132049023
  H           0.53133557715645     -0.88418315991630     -1.11190654148427
  H          -1.72353020455793      1.48007639111413      0.70202013795001
  H          -0.36437165948879     -0.34101332564586      1.60238516308397
  H          -0.21419392201592      2.27435101908139      0.04681550027892
  C           1.57191299351686      0.45833376546136      0.90305789333897
  C           2.28766139782819     -0.78648373432808      1.41314071411535
  H           1.84212732651609      1.29566692040131      1.55669803512995
  H           1.93450586286582      0.71490864832768     -0.09572977473894
  H           1.89479757209156     -1.07745752350825      2.38486444512299
  H           3.35164292181596     -0.58723860871350      1.52203718278769
  H           2.16917350047398     -1.62126155922172      0.72873136075353
