21
Coordinates from ORCA-job P E -35.224592864400
  C          -1.36523118106985      0.37325704912351     -2.40438504905209
  C          -0.14886903950422     -1.70968184565158     -1.06963689042711
  C          -1.52934173879991     -1.91347434591888     -1.61290230363235
  C          -2.10971537749077     -0.92013381033923     -2.26447776421920
  C          -0.81328673986705      0.76743084749011     -1.02123202918333
  C          -0.05665183456106     -0.37036805805862     -0.31104739781685
  H          -1.99996160053150     -2.87165705213697     -1.46632150396232
  H          -3.10157415257699     -0.98214683394389     -2.67959994065373
  N          -2.24847874265917      1.43156583069750     -2.85912583158587
  H           0.12932234230645     -2.53232649335324     -0.41015976448128
  H          -0.50621625868873      0.20764802787855     -3.08754696401720
  H           0.55599460717457     -1.69588943083018     -1.90941361171203
  H          -1.66823236092378      1.07522927718403     -0.41815896350677
  H          -0.50038399005358     -0.52400568204874      0.68075261013704
  H          -0.17590727626872      1.64607841718636     -1.14472160358476
  C           1.39399123626336      0.01430203250633     -0.06959759592375
  H          -2.66246691041580      1.18848378132148     -3.75181056060162
  H          -1.73816076983849      2.29978798951119     -2.97777600706478
  Br          1.51235396734609      1.60428119894024      1.07485656550962
  Br          2.38315513447551     -1.40585490077680      0.84283344866296
  Br          2.33294068568364      0.41219400121882     -1.73197884288457
