21
Coordinates from ORCA-job R E -35.145058141980
  C          -1.34222673980538      0.05157148738724     -3.20355953256231
  C          -0.08119251357670     -2.42193929658581     -1.98517831187387
  C          -1.30241887058960     -1.95037541529409     -1.74147504616657
  C          -1.91067204947363     -0.76818404316428     -2.30535763308268
  C          -1.02754454051174      1.02993127528471     -0.05138135805790
  C          -0.14417437912382      0.34454608214526      0.65107178487365
  H          -1.93462203855403     -2.49360628933340     -1.04898860783757
  H          -2.91840799867421     -0.54806864705820     -1.97503258911429
  N          -1.90633269131553      1.22311740358118     -3.65070491480400
  H           0.27526665696193     -3.32125549168921     -1.51392483852071
  H          -0.34330456418872     -0.12658272347961     -3.57193853036358
  H           0.60308246731651     -1.94026794360964     -2.66242195703751
  H          -2.06085191626741      1.04882680479137      0.24380595836176
  H          -0.43149665321716     -0.20327386443823      1.53929917981135
  H          -0.76805955010322      1.59220662118979     -0.93160481668726
  C           1.30733667300034      0.27891626215635      0.37357354064071
  H          -2.89810678953099      1.32141558312351     -3.49305278685904
  H          -1.59195002545935      1.56518956988066     -4.54321092800242
  Br          2.25409978184215      1.44343845665929      1.68058539500656
  Br          1.98101232856787     -1.54040018914729      0.62444962732555
  Br          1.81889341270269      0.86032435760041     -1.39503363504986
