21
Coordinates from ORCA-job TS E -35.133784094610
  C          -0.78670708468047      0.38203524079959     -1.44834221124335
  C           0.43937567808474     -1.79368733606166      0.02516703675777
  C          -0.88636715558068     -1.75808734082187     -0.28069402937320
  C          -1.48554729328455     -0.70983244691144     -0.99412004226518
  C          -0.27413634626564      1.03976031705436      0.70323751329412
  C           0.50091230824149      0.10157024640635      1.32495435126935
  H          -1.54848890834583     -2.46877069855138      0.19513330604220
  H          -2.56570688386929     -0.68139904443489     -1.04876059347720
  N          -1.39350454104106      1.42385194316142     -2.08601268924681
  H           0.81579931738845     -2.58767077530251      0.64890718602699
  H           0.27653980976077      0.32525904944269     -1.61981074033227
  H           1.16775935194357     -1.31217457147649     -0.60234554203847
  H          -1.31540715412034      1.12036188714607      0.95186616002053
  H           0.08192974829659     -0.52342394191872      2.09972395011842
  H           0.17584101886114      1.89378941407226      0.22658570658104
  C           1.96006718285591      0.30387119202115      1.43395356411295
  H          -2.37178456986236      1.57715775634048     -1.90165607002667
  H          -0.85233168158565      2.24975592222683     -2.27428538488232
  Br          2.32720338201366      1.75677941010924      2.79548279093231
  Br          2.93886284665944     -1.25320751522265      2.06598713012931
  Br          2.79569097453014      0.91406129192117     -0.21497139239954
