21
Coordinates from ORCA-job NEB E -39.856404289020
  C           0.74486922824346      0.76281974212143      0.86656394543278
  C          -0.54282497158327      0.36302486640777      1.24957338536100
  O           0.96441630823452      2.08756525886280      0.67224404671759
  H           1.62754369428164      0.26528623030781      1.24698607565197
  C          -0.79658753499303     -0.94808203929482      1.94828768702106
  C           0.69533253232834      0.14130939215241     -1.11620919782850
  C          -0.63876953619115     -0.17940271283556     -1.35778735138239
  C          -1.64175889068681      0.75108979773161     -1.11492492699674
  O          -1.55000125490210      0.94372170975702      0.73494990091286
  C           1.76582722496615     -0.88879445640027     -1.30644161383433
  H           1.00942545985803      1.14590188549524     -1.37839972675290
  H          -0.91212043305047     -1.22864700386864     -1.36205461679269
  H          -2.67534999441695      0.45691184671892     -1.20296831425602
  H          -1.44858467951807      1.79768397253469     -1.30162216085037
  H           0.10749669096623      2.53638226180269      0.59403440846609
  Br         -1.00455799435410     -0.56764082597306      3.87526840413907
  Br         -2.45060824054315     -1.73204144287357      1.30254659856693
  Br          0.61692304962620     -2.27120364824305      1.78031805322165
  H           2.03099039082953     -0.91780340321942     -2.36402743397182
  H           1.43297245858865     -1.88103246081147     -1.01514998383003
  H           2.66536649231633     -0.63704897037253     -0.75118717899520
