21
Coordinates from ORCA-job NEB_product E -39.884808451950
  C           2.88608073906600     -1.39457007443801     -1.57935029025360
  C           1.65090631168484     -2.20405823076457     -1.21422062243847
  O           2.61319953412379     -0.03008805051991     -1.39042601193793
  H           3.74453610024014     -1.70920185601693     -0.96434063684930
  C           1.78405993854073     -3.10248795727242      0.02121040491895
  C           3.25448017249990     -1.58905077881583     -3.07431280736963
  C           2.11760179050423     -1.17466071771496     -3.96272897827413
  C           2.02194053821646      0.02124516361085     -4.51119165068370
  O           0.58703831478230     -2.12637882414548     -1.75154801645975
  C           3.68712749790637     -3.02346508141069     -3.36047029847261
  H           4.09507382394165     -0.90822309152652     -3.24060561792748
  H           1.35444621094996     -1.92103234576671     -4.13197607193784
  H           1.18950919170600      0.29197784441761     -5.13712260137065
  H           2.76762422495786      0.78070075107942     -4.34590408272909
  H           2.50499053346026      0.17223355933640     -0.45269163927939
  Br          2.08877874734726     -1.89356653846422      1.53533123306105
  Br          0.14154269935918     -4.08523320163160      0.30244388486283
  Br          3.26907131214060     -4.34127188336836     -0.10363246852572
  H           2.86662699183841     -3.72028202414650     -3.19692970888789
  H           4.52601225806745     -3.31633387536340     -2.73274835366545
  H           3.99365306866662     -3.10515278707815     -4.40008566578020
