17
Coordinates from ORCA-job NEB E -42.856192646170
  C           0.70049104096046      1.12108937991660      0.30421194987871
  C          -0.68933234989464      0.84163757266726      0.25611554171500
  Cl          1.33185240076136      2.19567580807806     -0.92573213752518
  H           1.13223116206609      1.36661517099479      1.27133542508159
  C          -1.33511250986493      0.38236284815852      1.55886272182562
  C           1.42020272981199     -0.52071707359485     -0.15057715458054
  C           0.79042007843140     -0.82829614778934     -1.37080913223949
  C          -0.61708653456833     -0.98912770194582     -1.37603152953514
  O          -1.22254056715702      0.44615231387064     -0.84966068424658
  F           2.74539672572153     -0.29583116203506     -0.19032683270462
  H           1.18045126852499     -1.09471204739011      0.74387639944068
  H           1.29404533452453     -0.51672709993936     -2.27416970062101
  H          -1.03880536147105     -1.65822798909320     -0.63158886852616
  H          -1.08543264169328     -1.08991854837129     -2.34682887383312
  F          -2.66295940448006      0.42685481764939      1.51254747123658
  F          -1.00752711126878     -0.90197751029732      1.86292770151335
  F          -0.93629426040424      1.11514736912111      2.60584770312033
