17
Coordinates from ORCA-job NEB_reactant E -42.889403915110
  C           2.05913978439318     -0.29528824272511      0.21415740995843
  C           1.56537226765584     -1.44666533792164      0.67238398588526
  Cl          2.77664065708087      0.00107741621615     -1.31879464052484
  H           2.02999996778854      0.58299997704052      0.83843117744890
  C           0.95605802488928     -1.46616737071814      2.06866510865382
  C           4.15685294519783     -4.40464916522457     -0.83243299710235
  C           3.56504592773195     -3.22580246674620     -0.86825985816838
  C           2.08670831514700     -3.07189402366355     -1.04812072235914
  O           1.44027993406284     -2.68763770335559      0.16432355112764
  F           5.47747452258862     -4.52392630165315     -0.66754966413206
  H           3.67247313448193     -5.36444887547303     -0.94478868808553
  H           4.14820932250028     -2.32669812258731     -0.73698979030246
  H           1.62851554441258     -4.03404559150929     -1.28722265993809
  H           1.86513718996755     -2.35447879304098     -1.84278151580751
  F          -0.32841219181427     -1.83515889402812      2.03956551929430
  F           1.59181938661410     -2.33113227548078      2.86586033287945
  F           0.99978526730188     -0.27688422912920      2.68015345117255
