17
Coordinates from ORCA-job NEB_product E -42.882601410340
  C           3.06416811544893     -1.24525712949516      0.48712324412547
  C           1.56213616263165     -1.26493530803837      0.58232270921998
  Cl          3.54413910338742      0.06485503042747     -0.63055359902274
  H           3.53095933230517     -1.03929028293365      1.45457720577032
  C           1.05021520152850     -1.68877807044333      1.99698952724536
  C           3.58015154944419     -2.61439841711838     -0.03645681980398
  C           3.16881061651272     -2.86000679184842     -1.45603339916827
  C           2.10339896729995     -3.56414032496065     -1.78553207964798
  O           0.79141202912050     -1.01884465974997     -0.29204616446245
  F           4.94732211497889     -2.60371438435170      0.07513317896847
  H           3.22428155820941     -3.40912143758453      0.63327526174753
  H           3.80508850511181     -2.39910024983944     -2.19600023726083
  H           1.47039848782075     -4.02696915925119     -1.04574670754556
  H           1.82071652909647     -3.70483845082674     -2.81322278153393
  F          -0.27292924226805     -1.69002744545226      2.07257312026881
  F           1.47681774553422     -2.92669608013923      2.30208502826216
  F           1.52081322383748     -0.87203683839446      2.94681251283765
