20
Coordinates from ORCA-job NEB E -49.656590093060
  C           0.07993806076962     -0.59541567042225     -0.80110428637089
  C          -0.55561623981371      0.72245875468826     -1.06051002291896
  C          -0.84735415506430     -1.75253265505601     -1.25783994909471
  H           1.00288956537094     -0.68903177204021     -1.38107368859631
  Cl         -0.27206270356124      1.53743054564334     -2.50152309210740
  C           0.36042122493189     -0.69993692188405      0.67979105349417
  C          -0.44194625700427     -0.09833673527170      1.54806407434193
  C          -1.54191182566790      0.80346645127512      1.09152792033960
  O          -1.32474699857882      1.35016403732138     -0.21158970891811
  C           2.26288347606214      1.04753427890608      0.36039562004609
  H           1.15706157566954     -1.35658116304798      0.97973029418316
  H          -0.30202804919724     -0.18213456779882      2.61149451638932
  H          -1.64455115853761      1.67275867266696      1.74716043294910
  H          -2.50081820880106      0.26618035733236      1.07056037676539
  F          -0.28297483400313     -2.94074745704494     -0.97731601231567
  F          -2.02508578677021     -1.71657263500362     -0.59200101204743
  H          -1.06817114781032     -1.71816917010162     -2.33611456414650
  Cl          1.48422496455894      2.58912869923186      0.70076807758037
  Cl          3.47149904557122      0.68746714357625      1.57711845972530
  Cl          2.98834945187550      1.07286980702959     -1.24753848929844
