20
Coordinates from ORCA-job NEB_reactant E -49.731927285880
  C           1.89893635521033     -0.10567739944397      0.24598857780719
  C           1.47889844641573      1.12307533101113      0.56557358309253
  C           1.88671306039968     -1.32436263741403      1.11049799709383
  H           2.25380261674073     -0.26672997000936     -0.75719559595654
  Cl          1.47161393577266      2.31454566011145     -0.69463848518937
  C           3.85766525831288      0.93699028949596      3.74168311465175
  C           2.97324028644076      1.65443590286957      3.06811851724187
  C           1.52219435879979      1.30338985940727      2.96177291984576
  O           0.99620330783736      1.65953497052804      1.68360581879700
  C           5.30119580057461      1.25732196578611      3.87702694635041
  H           3.57168871571372      0.02803376432639      4.25161035580146
  H           3.26246599362635      2.55763416272803      2.54873344753416
  H           0.94136279817684      1.92431858654087      3.65228168920218
  H           1.33954792944196      0.25564217356764      3.20614845322640
  F           2.87609094364591     -1.32368675743179      2.05124156736505
  F           0.73022170111222     -1.45281185421201      1.81532594773365
  H           2.01068179553555     -2.24003901334619      0.51473909712004
  Cl          5.70391883763751      1.43456453973859      5.61192572760224
  Cl          6.26142530683243     -0.09847877648180      3.21801172507759
  Cl          5.78903255177297      2.73769920222809      3.04424859560280
