20
Coordinates from ORCA-job NEB_product E -49.748075829160
  C           2.73609802338394      0.63741524601579      1.09698476014090
  C           1.30566199195162      1.05618881794054      0.83612842695648
  C           2.91413740048981     -0.81020966338941      0.60440316858461
  H           3.39493926991814      1.24950226712391      0.46788651261809
  Cl          1.04717114623631      2.77285213982458      1.08729652312649
  C           3.08181608913540      0.96132548767809      2.57690202755402
  C           2.16766862856410      0.26389162958525      3.55149637640103
  C           1.27360022792814      0.91130966844337      4.27353129449941
  O           0.41546368386207      0.36594301556357      0.47277349491427
  C           4.55088862569540      0.72856327661971      2.95090569803310
  H           2.92868495377801      2.04271132881996      2.67774888009230
  H           2.27865532165914     -0.80539273077320      3.63443247357423
  H           1.14877952662528      1.98009908552001      4.21225245714316
  H           0.62782907831307      0.39284765432398      4.95975689991110
  F           4.20649663838831     -1.04441152306161      0.28762738300040
  F           2.56007228315696     -1.74027114791449      1.50911579501240
  H           2.31370398985227     -0.98844860920933     -0.30295851520183
  Cl          4.82285104330703      1.52058766788036      4.53080122645099
  Cl          5.00070178625464     -0.97407575638107      3.12238523069444
  Cl          5.63808029150034      1.49807214538999      1.76762988649443
