18
Coordinates from ORCA-job NEB_product E -30.718214656430
  C           2.37305084839259      1.78447758858851      0.11199174694552
  C           1.27682912829958      1.52341214888464     -0.87842677139337
  C           2.52564776434053      0.60584589713944      1.07933432442591
  H           3.30055833454451      1.87133842905753     -0.47164922059889
  F           1.44771470061374      0.30862866056277     -1.47420189988910
  C           2.11263272999014      3.13205845466490      0.82824911741200
  C           0.97571138297022      3.06236541858836      1.81822209157765
  C          -0.19602127154151      3.63110366793535      1.61388503411396
  O           0.36451627199940      2.19710683182246     -1.20015481040605
  C           3.31527666765654      3.53762454446094      1.52119286288721
  H           1.88149889834150      3.88870215357390      0.06840348366570
  H           1.18412421455827      2.52285808627299      2.73168622512567
  H          -0.41698677515734      4.17446359741185      0.71048196603936
  H          -0.98921654304634      3.56128684919921      2.33805558571244
  H           1.58960647715582      0.40551391956912      1.59548988845808
  H           3.29424591501041      0.83412857135704      1.81419019262267
  H           2.81843795043977     -0.29010497092651      0.53748080291221
  N           4.26207330543217      3.84199015183750      2.08366938038903
