22
Coordinates from ORCA-job NEB_product E -45.803292325350
  C           1.63157571644949      1.70964057339556     -0.25629206599281
  C           2.40329729906922      1.55362633002876     -1.56802111157333
  O           2.26848570414146      0.85137961122728      0.65247057342393
  H           0.58611457334886      1.39561502637767     -0.41723773325363
  C           2.02690333983905      0.30790598369862     -2.38416811955094
  C           1.63601706613677      3.20793351773398      0.17337911201714
  C           0.49026656456866      3.52502853940657      1.10347860308413
  C          -0.76642289346578      3.56814230287964      0.70160223948856
  O           3.18975220353306      2.34380326805156     -1.98979001276647
  C           2.89921539207775      3.53619424471228      0.79656573555290
  H           1.54235156010419      3.80502332102450     -0.74194791356395
  H           0.75160390649540      3.71637142022907      2.13522912865597
  H          -1.04546690348839      3.39324952326459     -0.32525044773786
  H          -1.56886326201859      3.78536604556768      1.38425188675757
  C           1.50286678298027      0.50734129800131      1.78545835732914
  H           1.32548198859997      1.37167435140589      2.43169728824061
  H           2.09352136866835     -0.23104936695546      2.32277409163622
  H           0.54140999665781      0.07050829834652      1.49328506461217
  Cl          3.26105869650325     -0.05428196096417     -3.59070761218806
  Cl          1.68094490505120     -1.12205741275407     -1.42208460150038
  Cl          0.52541074935624      0.84264389854007     -3.20802422444399
  N           3.86797524539177      3.79874118678217      1.34033176177308
