20
Coordinates from ORCA-job NEB_reactant E -39.875626051490
  C           1.33000893128212     -0.56899587353337     -0.06380062398606
  C           1.94859237975442     -1.62341763215128      0.50051959237025
  C           1.96492544757709      0.42694492615886     -0.93495303054585
  H           0.28310059508935     -0.39122593300710      0.12710123250375
  C           3.38930164601661     -1.98044334142629      0.32572495099218
  C          -0.98968826905270     -3.38010860121446      3.66050168294839
  C          -0.42737930095411     -3.53307148384768      2.47357971044765
  C          -0.04651463960469     -2.38174978377378      1.59623977834658
  O           1.33502166013136     -2.51105047435985      1.30000567863482
  Cl         -1.43826457343052     -4.70178329150443      4.65261277299859
  H          -1.22596540636131     -2.41633236727712      4.08665385124283
  H          -0.19572354612414     -4.51262726297363      2.08420753578035
  H          -0.24095806533537     -1.42835628495113      2.10293862169300
  H          -0.62845602540416     -2.42036496970100      0.66365895189815
  Br          0.64232108551193      1.70441873144710     -1.59106974566810
  Br          3.36532937135956      1.50518917034383      0.00114545265054
  Br          2.83680072333796     -0.34605264666519     -2.53495067588854
  H           3.63992741982780     -2.75766711489069      1.04243541423946
  H           4.03674682323326     -1.12183670565697      0.48702128017988
  H           3.57027374314555     -2.36206906101582     -0.67817243083786
