20
Coordinates from ORCA-job NEB_product E -39.874414918310
  C           1.38350230925385     -0.80641015924787      1.41072748427637
  C           2.82692785192659     -1.29080959513821      1.73321582379897
  C           1.25401930820956     -0.23464966339515      0.01265283605753
  H           1.25740641127079      0.05383624970861      2.08747547225376
  C           3.33916616098465     -2.54956452863225      1.11107980441255
  C           0.27327042819091     -1.80939031088373      1.79054900393969
  C          -0.12207419492010     -2.84758954443458      0.79508130136720
  C          -1.34265719402545     -2.91990264529479      0.29173745734295
  O           3.48994097350474     -0.60664752838235      2.46294790999676
  Cl          0.82695307642063     -2.63944744959716      3.30432527783799
  H          -0.61869472224582     -1.24380608219667      2.07857419500720
  H           0.61694595494969     -3.58958315014150      0.53244091476779
  H          -2.11130018439931     -2.20879266071318      0.54663002443853
  H          -1.61232788832151     -3.68776251085721     -0.41132332409090
  Br         -0.52547392412791      0.55978531064073     -0.22518092283857
  Br          2.57323548407149      1.19380436988342     -0.23912065983715
  Br          1.49604280719899     -1.48990832129838     -1.44797330645795
  H           4.17833824781811     -2.90764966060162      1.70366074944758
  H           3.71023162425500     -2.33122756417207      0.10950572595293
  H           2.58194746998509     -3.32148455524603      1.03949423232678
