20
Coordinates from ORCA-job NEB E -47.911640297670
  C           0.79640171997473      0.48945708649163     -0.39625093952046
  C          -0.14646489431273      0.82073569878377      0.57946765418134
  C           0.58126927616693      0.92975796485217     -1.81038034715140
  H           1.83800883821352      0.63305137309265     -0.11193002948903
  C           0.30489555482186      1.11732722910390      1.98728258080403
  C           0.56793748279807     -1.49874634158078     -0.38543162001470
  C          -0.79232809127951     -1.62465376510718     -0.56047291902618
  C          -1.67387913702540     -1.03002641313790      0.42266471432871
  O          -1.40823666440189      0.49286598529126      0.40458336196308
  H           1.22573527153587     -1.86732843922618     -1.15951326497235
  H           0.97815234824942     -1.57836097691199      0.61110300620083
  H          -1.19587176123134     -1.85193902274185     -1.53583911904095
  H          -1.46765360000582     -1.31586369970989      1.45352333180180
  H          -2.73200349591895     -1.09202281514471      0.18834106551276
  Br          1.10888657007998      2.84016224281125     -1.87785253431025
  Br          1.74873712381108      0.00683697894370     -3.07181805254146
  Br         -1.22014143071154      0.83741204781144     -2.48550745311589
  Cl          0.85125793525367     -0.37629533453237      2.85368833241459
  Cl          1.67060219716202      2.25446836561057      1.98488677855842
  Cl         -1.03530524317997      1.81316183530051      2.90945545341712
