20
Coordinates from ORCA-job NEB_reactant E -47.931043801000
  C           2.08352784111687     -0.24288379925474     -0.27125939072035
  C           1.61268864190667     -0.97336071787635      0.74616895276290
  C           1.43922477045069     -0.02587981352697     -1.57854613318536
  H           3.03829438635084      0.24928784281465     -0.14527917324044
  C           2.41964175585005     -0.98815513590932      2.04021535667257
  C           0.85885552499396     -5.00361783575375      1.35893447128896
  C           1.27209961929973     -3.92934660459050      0.71451459663042
  C           0.34787099181039     -2.90983718366881      0.12574209830904
  O           0.44405230666525     -1.63243853395049      0.78657719708522
  H           1.55086932069764     -5.72304752279636      1.76064782590809
  H          -0.18874545479312     -5.20934627380684      1.50300275686766
  H           2.32740074498954     -3.73121971991210      0.57873303018575
  H          -0.69666963896463     -3.19079679626950      0.26515180157145
  H           0.55318503115104     -2.79956803681894     -0.94602093348214
  Br          1.94194288338700      1.73328369420735     -2.27220561765965
  Br          2.09774034982323     -1.37637065868690     -2.88946159558466
  Br         -0.49910808775885     -0.10096031937077     -1.54980689757710
  Cl          4.02549403846510     -1.70894399195428      1.72857237987506
  Cl          2.66552341803828      0.67595947254241      2.62750786151259
  Cl          1.60431155652033     -1.92365806541779      3.29341141278000
