20
Coordinates from ORCA-job NEB E -41.095317054700
  C           0.01641269429120      1.73775452206662     -0.72773812110409
  C           0.11832057246712      1.37550481624082      0.66398860463557
  N           0.69263744158592      0.77513529418607     -1.35773571568721
  H          -0.24285246645785      2.69417303101128     -1.13476416180062
  C           0.72623453454785      2.34196910667728      1.65240148295482
  C          -0.49756014565833     -2.42794816167024     -0.95715143348446
  C          -0.37102940481660     -1.72893971253540      0.16923942439208
  C          -1.24605542058517     -0.56036732584113      0.51194657862483
  O          -0.55188161119473      0.43041438794922      1.26945327844300
  C           0.28216899798138     -3.57248024498770     -1.21622095511236
  H          -1.19718448059978     -2.15441219988181     -1.73667698654118
  H           0.34942493198992     -2.00985349776038      0.92313368698450
  H          -2.04935649171356     -0.89267892754970      1.17995425472173
  H          -1.67889209567179     -0.10807198662757     -0.38967750411580
  O           0.77039078809099      0.53049824689591     -2.53997917821185
  O           1.29524809964248      0.06894682506986     -0.44809140609796
  F           0.73962281187213      3.60613754458362      1.14479584353746
  H           1.76848285644361      2.04711491866628      1.83229495727886
  H           0.17456734566283      2.35809713242540      2.59814758227693
  N           0.90130104212238     -4.51099376891846     -1.43732023169425
