20
Coordinates from ORCA-job NEB_reactant E -41.143630632850
  C           2.13116015551894     -0.64366532693628      0.30967636533810
  C           1.61360908971814     -0.71982747757440      1.55198582768519
  N           1.67480856539734     -1.23600731400870     -0.88944953919476
  H           3.02467336955297     -0.05385668196554      0.16557047264370
  C           2.21705667546795      0.13560510792755      2.64739149599040
  C           1.24774199069383     -4.31971917076286     -0.04169262435898
  C           1.21530085083593     -3.61609901145211      1.08807366985508
  C           0.14133952198489     -2.62808398846866      1.41864340187510
  O           0.65382986611863     -1.47511443190834      2.08281908572319
  C           2.25264272989976     -5.27381993423278     -0.29967041666645
  H           0.50307594852958     -4.19402423298199     -0.81721609031070
  H           1.98213445119904     -3.74625500065174      1.84170458050823
  H          -0.54676343754953     -3.06028477441764      2.15396961826072
  H          -0.41875561200980     -2.34551919888316      0.51924464837438
  O           2.51266617577587     -1.48721305813007     -1.73046461849917
  O           0.47732824747672     -1.42364718651351     -1.03881003994106
  F           3.01041564152018      1.12328437918327      2.15078336212943
  H           2.83497859569127     -0.47751096940574      3.31442686390497
  H           1.41378350473381      0.60624963808549      3.22440437516777
  N           3.06647366944450     -6.05369136690276     -0.50539043848515
