20
Coordinates from ORCA-job NEB_reactant E -54.704331675960
  C           1.67269920488837      0.08057263092715     -0.00868600563378
  C           1.07940985929455     -0.58497420327426      0.98275128125611
  C           2.01329332112414     -0.59834726522906     -1.29025645925193
  H           1.92616577321720      1.11941097689925      0.08837326380383
  F           0.78381664577665      0.05335546728976      2.12314309831746
  C          -0.34748904353051     -4.82034637864419      2.62025756232819
  C          -0.23127683298258     -3.85336783256950      1.72597581087389
  C           0.09065773569246     -2.43706123164182      2.06992003551769
  O           0.74383313970680     -1.85805160451940      0.94299360320689
  C          -0.71213518659452     -6.22573407376099      2.25396429343766
  H          -0.20384526206529     -4.67410903280243      3.68040140784512
  H          -0.37547089767920     -4.04171798887814      0.67093197287557
  H           0.73345557506839     -2.37479507586219      2.95577251657061
  H          -0.84048398254821     -1.89020404925975      2.27782962287173
  F           2.90902438248910     -1.59096395295250     -1.13756311900563
  F           0.94584803123220     -1.15869074402915     -1.88709737249192
  F           2.53959666816334      0.25738683420840     -2.17228572033399
  F          -0.88828767413167     -6.40747968272118      0.94161079546993
  F           0.22848166467753     -7.10070868941896      2.64557467909342
  F          -1.85359312179878     -6.61017410376103      2.85328873324917
