20
Coordinates from ORCA-job NEB E -41.351280515050
  C           1.05219405331506      0.41691289803676      0.45688732327834
  C           0.36922240850050      0.78188209827069      1.61760420735311
  C           1.12600366924833      1.44610289678546     -0.64494819081994
  H           2.01197176668280     -0.07725167579240      0.57232307574278
  Br          0.89514661910322     -0.20404933958767      3.22653585882648
  C          -0.19467285166752     -1.00516515034196     -0.20706502106385
  C          -1.41234411607360     -0.32984071231335     -0.16574499763509
  C          -1.91201328398726      0.13499615560078      1.07960570008535
  O          -0.80590518235261      1.24579293727507      1.60943211126840
  C           0.34247968033299     -1.50771400047081     -1.51494184432469
  H           0.03118451608301     -1.66260810173752      0.62910217647272
  H          -1.77648959642708      0.13978558795717     -1.06751090324038
  H          -1.87415660877567     -0.55773469643081      1.91745826781970
  H          -2.81791457659562      0.72638446876938      1.05698338029422
  F           1.81673622611958      2.52481599244470     -0.22785194324820
  F           1.78826205306108      0.98532186950082     -1.71650137264478
  F          -0.04591639409973      1.90360738320321     -1.08766852878902
  H           0.10610288217527     -0.83170050587511     -2.33193031397391
  H          -0.11806902772504     -2.47283765411602     -1.72508344620381
  H           1.41817776308230     -1.65670045117839     -1.47668553919741
