20
Coordinates from ORCA-job NEB_product E -41.393384993660
  C           1.53845388297560     -1.98226525607627     -1.16624215473456
  C           0.93521855204348     -1.31012323025042      0.03455670874527
  C           1.71633603640430     -0.95042731952321     -2.28388161651904
  H           2.54468719798836     -2.34504167458827     -0.92735686700375
  Br          1.23442032084405     -2.36459709357664      1.65202313115815
  C           0.63637543540933     -3.20270082760595     -1.52831097036885
  C          -0.82073811696305     -2.82423605185226     -1.49783681641022
  C          -1.67054552760552     -3.28503706856833     -0.59985773223698
  O           0.31712615929825     -0.31086801631385      0.10184077219093
  C           1.00889752128459     -3.81059346568681     -2.87885542845494
  H           0.81690823024803     -3.95039857292076     -0.74793104776502
  H          -1.15043562448968     -2.14788994377443     -2.27311465749513
  H          -1.36597354211807     -3.96290962697915      0.18167394455500
  H          -2.70891983246844     -3.00374424344715     -0.60870955680296
  F           2.30827827677824      0.15894044100675     -1.81710882746027
  F           2.52256460737970     -1.41276707445156     -3.25099354628703
  F           0.58497562191088     -0.57031100278683     -2.87496659845871
  H           0.75667536798986     -3.14239706368744     -3.69817080416500
  H           0.44984412170485     -4.73336535996550     -3.01268255460456
  H           2.07095131138521     -4.03856754895193     -2.92647537788235
