20
Coordinates from ORCA-job NEB E -47.787808735710
  C          -0.14921020277861      0.44068008760166     -0.82373625319312
  C           0.42593438497437     -0.82891290786295     -0.55659513529659
  C           0.59965437405771      1.61179509783117     -1.36663933348344
  H          -1.08154721202262      0.32020320333370     -1.37455501379736
  C           1.88680586574714     -0.99731102290757     -0.12067180659194
  C          -1.12533131519690      0.83884902014929      0.86859533269162
  C          -1.18398277362555     -0.38251287615023      1.56278577927664
  C          -1.67897170590399     -1.49785602615927      0.90786775375694
  O          -0.35341497519004     -1.79194404266648     -0.32708538820657
  Br         -0.33014836335173      2.29752898407587      1.80616089791087
  H          -2.01194539554474      1.18305512591895      0.34872748393789
  H          -0.48658548113695     -0.52882622288431      2.37764291719795
  H          -2.47035872726684     -1.38289463393826      0.18018764563765
  H          -1.65204257763386     -2.45587027041481      1.40287975370902
  Br         -0.60947793530642      3.13699449807692     -1.56162585762257
  Br          2.17960000723336      2.21363993938960     -0.41696391176701
  Br          1.19336972289004      1.12927761734936     -3.21544061452086
  F           2.04990274025552     -0.46070833042084      1.11914610373850
  F           2.17479741092867     -2.30461062644194     -0.01263998860154
  H           2.62295215887143     -0.54057661387986     -0.79804036477608
