18
Coordinates from ORCA-job NEB_product E -36.763383562520
  C           1.01002177818720     -1.11904821345558      0.65624367760163
  C           1.51671172925501     -2.22575556757799     -0.26675737117564
  C           1.72091001240983      0.19549688679982      0.39631577414464
  H          -0.05403155629582     -0.98081991973005      0.42324576824954
  O           2.84513450704695     -2.29509164018728     -0.29091597687118
  C           1.14377873127234     -1.57604179631021      2.12150865352006
  C           0.18566471850724     -2.68902219143778      2.42152152661924
  C          -0.77365477687800     -2.60240471614975      3.32240399673573
  O           0.79753743773174     -2.96199387595521     -0.87752917252138
  H           2.17016171282661     -1.91159722744295      2.29875691815810
  H           0.93564520749806     -0.73162364956401      2.78388072417088
  H           0.31560434696333     -3.58957191395904      1.83704671443337
  H          -0.92251111430862     -1.71087383457814      3.90969974554953
  H          -1.44482264163642     -3.42050127454613      3.51573247194040
  Br          0.76329902719286      1.65127746956579      1.28780849543490
  Br          3.55086421617796      0.23703966125752      1.03519859050137
  Br          1.73518892214635      0.59065565573175     -1.52527965472242
  H           3.15529774190339     -3.00502385246075     -0.87538088176876
