16
Coordinates from ORCA-job NEB_reactant E -30.665297634640
  C           2.36289679569057     -0.01082387438522     -0.62854532562191
  C           1.55917104778783      0.37853479985753     -1.62195908408603
  F           3.04104571023165      0.83797453695662      0.19112676012168
  H           2.57582553121332     -1.04314271127568     -0.41479351870146
  N           0.96748035251501     -0.55651413100511     -2.46537465344363
  C           3.85081399805965      2.00507447283622     -2.96279107709543
  C           3.35990633408105      2.80398896306603     -2.03613999317557
  C           1.94944128483780      2.74504488090897     -1.53607886450637
  O           1.20630046577569      1.63806741654212     -2.00503213986886
  F           5.12472726139507      2.11085969976165     -3.37507711248689
  H           3.32448940886827      1.21525400217676     -3.47785540423102
  H           3.98313864789960      3.55980623962503     -1.58358085616285
  H           1.39427040550220      3.61539003175730     -1.90488019313212
  H           1.94846935788270      2.78389143837753     -0.44036231890351
  H           0.16383909185793     -0.17905090066475     -2.94613297025299
  H           0.79908430640168     -1.46015486453500     -2.05262324845304
