20
Coordinates from ORCA-job NEB E -49.127704141400
  C           0.75968499529571     -0.81961067236726      0.22081009223353
  C          -0.23244674890543     -1.48160038454099     -0.52802949423922
  C           0.57084214347051     -0.71302049394662      1.71165590454288
  H           1.78763561153087     -1.06197849522477     -0.03040362595891
  O           0.18309441011412     -2.12293087981899     -1.63809889196704
  C           0.41978497441164      1.01226556124431     -0.48025262542293
  C          -0.94086068420791      1.21242943341278     -0.25814444967402
  C          -1.85514798613221      0.34846767393666     -0.90260399051619
  O          -1.47276162401505     -1.21392890970404     -0.38536256316200
  N           1.36406729166794      1.88077523856138      0.22438369505881
  H           0.79998714734701      0.77379255913774     -1.46918187118367
  H          -1.23256867905816      1.72056550284072      0.64903552278815
  H          -1.72104844786585      0.18997426790108     -1.96853522492740
  H          -2.89198852594145      0.41798443386552     -0.60410760334512
  F           1.52418209727499      0.03480207183453      2.27808299055170
  F          -0.60318333270958     -0.21524651665886      2.09927620888616
  F           0.66896331034073     -1.93135229265461      2.27855437249933
  H          -0.57797362758284     -2.44560503444018     -2.14303965506896
  O           2.50195529695732      1.85345859722259     -0.17948149452650
  O           0.94778237800767      2.56075833939901      1.12544270343138
