20
Coordinates from ORCA-job NEB_product E -49.175374299600
  C           2.28380770192172      1.73938518958938     -1.02496271246392
  C           1.39925746613059      0.83156976866703     -1.92246546161959
  C           2.31637774650621      1.24470920529978      0.41844214964546
  H           3.31891962367969      1.68863298744222     -1.40177455064651
  O           1.64575378794610     -0.46712636615744     -1.86334211951644
  C           1.81995379384370      3.20137624098599     -1.12538419314240
  C           0.73777641327328      3.58690169458191     -0.15537676410463
  C          -0.54319917194331      3.54364054962590     -0.46720606073580
  O           0.57218921594853      1.28975672154130     -2.64862415034196
  N           2.99445289814811      4.12770342762650     -0.98448964420799
  H           1.44680646304177      3.34540939441805     -2.14969853375157
  H           1.07139115788030      3.90133021907910      0.82334083913118
  H          -0.87959038153262      3.23000501551633     -1.44140091005269
  H          -1.30118259116833      3.80417539933955      0.24926141239611
  F           2.90664591089118      2.11222967490564      1.24019067760082
  F           1.10709290315849      0.98023628586391      0.91956067016546
  F           3.01694340861880      0.09246772250623      0.51119158123248
  H           2.33716070234561     -0.75352082269646     -1.24878977859123
  O           2.75595376078619      5.24130662708808     -0.60887134730954
  O           4.07868919052401      3.69651106477699     -1.29090110368725
