18
Coordinates from ORCA-job NEB_reactant E -26.471923466570
  C           1.76013088403136      0.07989654847194      0.12449615609690
  C           1.46937747721489      1.15088282210326      0.88183217895118
  C           1.79624860505312     -1.26748611584146      0.50807916278938
  H           2.00573798831082      0.24594121383498     -0.91514643594481
  H           1.49409136856501      2.13418513067343      0.42443397189878
  C           2.74028359048311     -0.23074438008703      4.78460291194702
  C           2.38528408412207     -0.29222402475675      3.51210843194115
  C           1.03699897493528      0.12068215789602      3.00306518402515
  O           1.11171530655438      1.26772715530927      2.15663296474472
  C           4.07112422899040     -0.64380862175480      5.31131540262636
  H           2.03489786515404      0.12728675543451      5.52423546111903
  H           3.08004312607713     -0.64907409505001      2.76465853590430
  H           0.39585313124174      0.43272931956692      3.83149880972443
  H           0.55893079203475     -0.70680302261584      2.46621795448424
  N           1.85414399890632     -2.38798795782152      0.75910293156530
  H           4.71828327080063     -0.99047226212068      4.51027223071986
  H           3.95109268147544     -1.44491873879387      6.03978905458434
  H           4.54966262604951      0.19308811555163      5.81900509282266
