18
Coordinates from ORCA-job NEB_product E -26.469500084280
  C           2.80253023961075      0.36064552534275      1.77503978841237
  C           1.70463298943088      1.21366503931752      1.16030237123002
  C           2.95078520172370     -0.86722156310407      1.03237594453728
  H           3.73416811856745      0.93305023192799      1.64957941763815
  H           1.68589896680556      1.17406720492673      0.05438994643449
  C           2.56484321679350      0.09741015412721      3.28186039800979
  C           1.37917357546640     -0.80645589559965      3.46203828045517
  C           0.25637309543610     -0.44201969669613      4.04942914545837
  O           0.94231962513542      1.89016509405790      1.78182988742376
  C           3.81175465269813     -0.51776061038014      3.91646545158061
  H           2.35121860041631      1.06468180394942      3.74762689864316
  H           1.50172711623963     -1.80796934492262      3.06912824736887
  H           0.11679287211163      0.55386996680027      4.43612989541319
  H          -0.57245442164727     -1.11974476013731      4.16077582026444
  N           3.06183131231728     -1.84485869075228      0.45121551439322
  H           4.66548350970893      0.15118009008457      3.82317907905233
  H           4.05755130074751     -1.46378053771010      3.43724710577888
  H           3.63417002843808     -0.70312401123208      4.97298680790591
