23
Coordinates from ORCA-job NEB E -36.643335234870
  C           0.37334194225143     -0.19053505506598      1.52881924585180
  C          -0.14804140617913     -0.46771214074638      0.16974540189086
  C          -0.36252564490944      0.64190543093718      2.49488613659333
  H           1.22024649704100     -0.76896531622229      1.85579560792915
  C          -0.31344373996812     -2.01395090254327      0.03393932181082
  C           0.77799958093060      0.00336640844527     -1.00736421529437
  C          -0.22267964118843      0.43594392957679     -2.00541560522455
  C          -1.56586180689680      0.46789405054378     -1.40124410310630
  O          -1.39555597312499      0.16127379874673     -0.03018402988616
  C           1.72700108307105      1.14550890136366     -0.60424607505618
  H           1.39068574950990     -0.83295408587547     -1.36630939440990
  H           0.00844421670128      0.81981802945421     -2.97686940822372
  H          -2.24847343168691     -0.26473978426516     -1.87074029656852
  H          -2.05621080958928      1.45074158667043     -1.46742780974969
  H          -0.91866431524855      1.42060620266698      1.97725053474205
  H           0.31595805313610      1.08047944123111      3.22481056766801
  H          -1.09868927186289      0.04286857057147      3.04534440453300
  F          -1.23649114122431     -2.47573301146857      0.90479682165884
  F          -0.74564399443437     -2.37850675223399     -1.19873184474279
  H           0.63082452613515     -2.54662501606952      0.22641229398231
  H           2.44637823107419      0.80127134352435      0.13338834479967
  H           1.15982980666155      1.97115872101330     -0.18360949674576
  H           2.26157148980099      1.49688564974538     -1.48304640245191
