23
Coordinates from ORCA-job NEB_product E -36.737482000710
  C           2.81489224895613      0.59652849161286     -1.18986015806718
  C           1.61269215301732     -0.29216606918417     -1.03787057082026
  C           2.86172799425895      1.60613082058297     -0.04742862623999
  H           3.71052151439166     -0.03380252722522     -1.16688244345606
  C           1.62656824774402     -1.60187763642259     -1.87199666115992
  C           2.75320320307650      1.24912479459839     -2.60479772845551
  C           1.62382328391268      2.23432663882666     -2.69094093418842
  C           0.47478839877232      1.99005594288127     -3.29121521027208
  O           0.65407561925329     -0.06383284081418     -0.35294852780487
  C           4.08213504435986      1.91905222405003     -2.95067487452355
  H           2.58063072533540      0.45217851133760     -3.33425619594686
  H           1.80661815992005      3.19364727504346     -2.22631450384534
  H           0.26905640359808      1.04411077834524     -3.76496880944082
  H          -0.31248330235242      2.72314360034349     -3.33228392043211
  H           1.93173206018112      2.16549276823557     -0.00083210200039
  H           3.69116626974495      2.29462558565662     -0.17460180600871
  H           2.98919215027499      1.08454439117775      0.89845933036085
  F           0.96378869418446     -1.41731371531104     -3.03935080593097
  F           2.87919667309728     -1.99333530894109     -2.20354048605226
  H           1.13477591398322     -2.42344596424137     -1.32945951046004
  H           4.89960358510448      1.20405995535102     -2.89338745025295
  H           4.29379596587558      2.74770962535538     -2.28006484240807
  H           4.03569899331009      2.30824265874133     -3.96518316259450
