23
Coordinates from ORCA-job NEB_reactant E -36.724045150250
  C           1.90432842324699      0.09368540638275     -0.21221691036393
  C           1.52742383280103     -0.66402100732630     -1.24287557695778
  C           2.10469877953182      1.57421828864573     -0.10678800995936
  H           2.08150162020149     -0.44059741576547      0.71045646369298
  C           1.41258688310695     -2.16459555946893     -1.04272608003082
  C           2.95136984009434      2.64704732355225     -3.48760723338731
  C           2.57978961394256      1.37935899146490     -3.41794800051011
  C           1.19730867585552      0.91483529347322     -3.06012031456928
  O           1.17912868862995     -0.39350830731707     -2.52604317373990
  C           4.31393093663288      3.10821686864249     -3.87966289487924
  H           2.24005822848542      3.43190879945122     -3.25884589410516
  H           3.27431010651189      0.58335846243881     -3.64960568179679
  H           0.60267593166428      0.81962736875414     -3.97776942517568
  H           0.69036414774516      1.62156663548507     -2.39512866807858
  H           2.52055412564842      2.00067605709501     -1.01453887425616
  H           2.78712815109134      1.78292980138972      0.71398603110209
  H           1.16123079679006      2.07470757201966      0.11572643309237
  F           0.15811537594791     -2.60183167830109     -1.31120053500151
  F           2.23270917832481     -2.83285008659755     -1.89086714620928
  H           1.66410959691155     -2.47927027330647     -0.01908824836914
  H           4.96846696209006      2.26439753720382     -4.08078578186014
  H           4.75032976420025      3.71375845974432     -3.08563360835186
  H           4.25568034054532      3.73038146233976     -4.77221687028540
