17
Coordinates from ORCA-job NEB E -28.785672241570
  C           0.67819760058557     -0.20883964657911     -0.83530491533996
  C          -0.72887801047958      0.02387163434218     -0.70914690542141
  Br          1.16456163649212     -2.14667996723734     -1.02111744607230
  H           1.11219958417204      0.26924905231201     -1.71137145806177
  C          -1.44272167947480      0.99733326082055     -1.58496531085168
  C           1.35509517875527      0.33338489727460      0.52148670011702
  C           0.74882102621865     -0.36004022037153      1.63051638961398
  C          -0.67880515653686     -0.72754158716608      1.55156793969302
  O          -1.39234008037136     -0.40552553738150      0.36409418697870
  I           3.54462066646969      0.11365258774110      0.45659670727353
  H           1.22484258926352      1.41453558939183      0.47847709059252
  H           1.35077813425297     -1.03564211912399      2.21567315466857
  H          -1.26752549159724     -0.20451477276003      2.31736080896872
  H          -0.80023982784073     -1.80208111222037      1.74059425478500
  H          -0.99205183372853      1.99063951207920     -1.50822117550731
  H          -2.48279913491202      1.05873525687473     -1.27776300758726
  H          -1.39375520126873      0.68946317200376     -2.62847701384935
