17
Coordinates from ORCA-job NEB_product E -28.842817750690
  C           3.00578114106794      1.76582766448976      0.94995979620591
  C           1.48647017857638      1.90615576364429      0.82275481373261
  Br          3.47776094056583      0.14677879740140     -0.06119042644880
  H           3.50403982012460      2.58191546205347      0.42004927358968
  C           1.02902465819142      2.39323140774682     -0.52148536732898
  C           3.46082128315092      1.68393682163987      2.39307768541552
  C           2.96570162614195      0.49839527374662      3.13506983205621
  C           2.42949115996138      0.56721256612563      4.34024649769762
  O           0.74824313435422      1.65507192127096      1.73599648830051
  I           5.65682215907790      1.70489421912009      2.45143940303278
  H           3.16438956481973      2.60561283786849      2.89918506481652
  H           3.09109134266320     -0.45472766869966      2.63891014215396
  H           2.30258643994742      1.50462953090728      4.85647178195138
  H           2.08168128135645     -0.31346092107909      4.84988286285328
  H           1.23768750041170      3.46080791533337     -0.59322138931301
  H          -0.04193305060219      2.23962713746847     -0.62411491394237
  H           1.55584082019116      1.88889127096222     -1.32793154477281
