23
Coordinates from ORCA-job NEB E -52.986372404550
  C           0.44663759252425      1.46851317774494      0.45674995964482
  C          -0.15473959449835      0.11936508847157      0.49915027568123
  C          -0.25745149214858      2.56599009329848     -0.22749038501118
  H           1.23855112861308      1.71792820468699      1.13881081611525
  C          -0.39871257195939     -0.23331783497668      2.00658718013787
  C           0.68973015930418     -1.07106958924993     -0.09454391497431
  C          -0.37511331163878     -1.91618540830698     -0.67505030644815
  C          -1.65124253129774     -1.18307489007960     -0.69266960610508
  O          -1.38045708477312      0.11373056449565     -0.19032375537512
  C           1.71989053646019     -0.66769906599420     -1.17199622413297
  H           1.26269890256208     -1.56779235958354      0.69704278570877
  H          -0.19408263102771     -2.81213422975167     -1.23058380021663
  H          -2.41827814365345     -1.67479549309768     -0.06847951582145
  H          -2.07657302039363     -1.07076487132237     -1.70017939703740
  F           0.47200180880456      3.72158797619352     -0.18191039068873
  H          -1.22885618803613      2.78041765378098      0.25134745949937
  H          -0.45007434622914      2.33748005536440     -1.28441601441077
  F          -1.27403324274286      0.63699997339501      2.54495097460120
  F          -0.94347009930583     -1.46196008393743      2.15560561707617
  H           0.53082385131900     -0.19961233847059      2.59466976287248
  Cl          2.47215482532878     -2.14310743697845     -1.82614982398747
  Cl          0.94593477570327      0.20177711801899     -2.50095714325353
  Cl          3.02466067708532      0.33772369629860     -0.50016455387440
