23
Coordinates from ORCA-job NEB_product E -53.075483961810
  C           2.86064560952682     -1.09207376575356     -0.64313121253157
  C           1.63463021218113     -0.98703890063933      0.23472336259899
  C           3.03588262154519      0.19512254312552     -1.45516858276563
  H           3.73644111607966     -1.18287655087421      0.01289824473505
  C           1.51097145774149     -2.05850646530167      1.34795365681262
  C           2.75082238911768     -2.41571454496413     -1.44885564557313
  C           1.53982324774149     -2.43339504549880     -2.34354078341623
  C           0.60262776279186     -3.35869482113620     -2.27095565660014
  O           0.78438972733304     -0.14955609247280      0.13263845952031
  C           4.01360406836796     -2.74707595811838     -2.25745249773205
  H           2.66220737373461     -3.23393755545575     -0.72597393435841
  H           1.47703730083033     -1.64356925107034     -3.07632694900558
  H           0.64252712219094     -4.16146377500099     -1.55424705301922
  H          -0.25029680702860     -3.34402640815967     -2.92628081176667
  F           4.36676478410114      0.49214862524048     -1.57275428956556
  H           2.56991799162101      1.03522733451371     -0.92907631651230
  H           2.62916685876869      0.12753411764170     -2.46535787137494
  F           0.77717914028704     -3.10546904458022      0.90425509821992
  F           2.71445326546666     -2.55731085187870      1.70526484012665
  H           1.01655002834568     -1.64730073742117      2.24105324261087
  Cl          3.85900877923906     -4.43216592845685     -2.83532595827127
  Cl          4.23852609986089     -1.72050648531730     -3.68228674726666
  Cl          5.47451985015622     -2.65145043842134     -1.24685259486505
