23
Coordinates from ORCA-job NEB_reactant E -53.065816717320
  C           1.94576571081425     -0.23518655127946     -0.14992509459478
  C           1.50589911771470     -1.31711390695924      0.49000304978742
  C           2.09566989781576      0.04542607819537     -1.61377627806151
  H           2.24344353487684      0.60612030833051      0.45794452307813
  C           1.43502373360023     -1.30105806522599      2.00817704565726
  C           3.07814410639283     -3.25355587625280     -2.86678895008132
  C           2.60663740555120     -3.25313034226064     -1.62936424092444
  C           1.18389994344396     -2.93364690063752     -1.27998919105955
  O           1.03887954503981     -2.51482086133091      0.05733812060454
  C           4.47491871452217     -3.57051196610669     -3.26069183457096
  H           2.44506366581761     -3.00733263571050     -3.70891559301294
  H           3.23557944169367     -3.50654595386319     -0.78760390474004
  H           0.59320584185115     -3.85663887677411     -1.32510749393661
  H           0.74867821081879     -2.21116076228822     -1.97853023082664
  F           2.81997983448488      1.20015676059215     -1.77141224079185
  H           1.12701420091645      0.23204295392073     -2.09644041931220
  H           2.64299604931678     -0.73562080897153     -2.15227108640359
  F           0.16118818677669     -1.46566560231658      2.43332717626893
  F           2.14589364594485     -2.32920445622819      2.52627307513672
  H           1.81977226273039     -0.36799404355307      2.44488134842785
  Cl          4.46677913835683     -4.92220659691202     -4.43207362137859
  Cl          5.18138110996497     -2.13534836264720     -4.07147174206751
  Cl          5.51878670155523     -4.01200353172090     -1.90498241719832
