23
Coordinates from ORCA-job NEB_product E -55.336007993740
  C           2.06283037382404     -2.04460400350076     -0.95881489439301
  C           0.65062726013432     -2.53600871695543     -0.67825741707558
  C           1.91769834728393     -0.55139860422524     -1.27972464273880
  H           2.70750205121969     -2.14032345254452     -0.08058791502119
  C           0.25828235972089     -2.87309972271975      0.76002275946231
  C           2.68564903823648     -2.84908574870455     -2.12340818715873
  C           4.04438216872948     -2.31769412472535     -2.48227643292334
  C           4.36672462206191     -1.88978914392549     -3.68729116968220
  O          -0.16166002221154     -2.69801066393998     -1.54167903417450
  C           2.81109587899322     -4.32463783559643     -1.72101546231602
  H           2.01902027516002     -2.80108773713764     -2.98862169393782
  H           4.77460931531324     -2.35322020734827     -1.68585293647005
  H           3.64968922750583     -1.85700960517574     -4.49091051221894
  H           5.35990024718216     -1.54599398072167     -3.91665472205564
  Cl          1.28956824579500     -0.27107629682916     -2.91058257242463
  Cl          0.74792164824883      0.17447866791472     -0.12665995764481
  Cl          3.46174594983111      0.29969227783563     -1.09533945913905
  Br          1.36976023743828     -2.18149017017774      2.17270028603065
  Br         -1.57283824144534     -2.29911439110861      1.04423506382579
  Br          0.31736191331271     -4.82767712843475      0.84466719329461
  F           3.41751535081364     -4.43762975267500     -0.49636493480290
  H           3.43497461396866     -4.86312937758407     -2.43995269510385
  H           1.83483913888343     -4.81259028172020     -1.64193066333233
