17
Coordinates from ORCA-job NEB_reactant E -42.435225097450
  C           1.71137616029007      0.03555126666126     -0.03257337131485
  C           1.05674593936734      0.15834333439507      1.12317353909511
  C           2.05025925081023     -1.30639026717073     -0.58114823336358
  H           2.01612264544851      0.89687567959849     -0.59640962312367
  F           0.76500183721922      1.38100790646015      1.58826747953545
  C          -0.19476619244706     -2.17860059606035      4.95200887737266
  C          -0.43309877177653     -1.87981920518756      3.68729184311346
  C          -0.06330738550620     -0.56641291315707      3.07768315339160
  O           0.65790634195079     -0.84485880599372      1.87461602182678
  Br         -0.70134603501099     -3.82104077734719      5.71839617916703
  H           0.28134068933120     -1.51001012171258      5.65247317772178
  H          -0.90255268350741     -2.58534395475265      3.01797915589711
  H           0.55531150138553      0.02993510529585      3.75823119924671
  H          -0.97120127901792      0.00250846718851      2.83362337367621
  F           2.88260396173446     -2.00613466247300      0.21230916205991
  F           0.97123724250635     -2.09031407602391     -0.75906378205977
  F           2.65226677722242     -1.21069637972058     -1.77175815224192
