17
Coordinates from ORCA-job NEB_product E -42.444694841460
  C           1.66194340367324     -0.80159685961100      1.43433101426701
  C           1.03935961055323      0.48949150190916      0.94569590362807
  C           1.34834556731689     -1.92012353125196      0.43385752823153
  H           2.75257998064119     -0.66898953206663      1.43694354231314
  F           1.49707425353102      1.51985992019148      1.70332613592318
  C           1.18462070085402     -1.07492750095462      2.87746469642197
  C          -0.20477770898168     -1.61161412023191      2.96633476665324
  C          -1.20534943209206     -0.91320901440294      3.47007533936746
  O           0.27169838931661      0.68485969158024      0.08116755953591
  Br          2.43793920423237     -2.32680113118208      3.76679986528222
  H           1.28011406664846     -0.14785419982561      3.44948328604104
  H          -0.34923359095396     -2.62212732006865      2.61214282341717
  H          -1.07443537147489      0.09092470015648      3.84013732123122
  H          -2.19879599335512     -1.32039521115159      3.52552246029984
  F           1.78483969854218     -3.11077057065456      0.84889368312764
  F           0.04587370482540     -2.05590158356961      0.17919274527237
  F           1.95440351672310     -1.67312523886622     -0.73416867101302
