18
Coordinates from ORCA-job NEB E -30.043480046740
  C           1.04483421584459      0.03479730527853     -0.54099640233056
  C           0.30864612988098      1.05323246909106     -1.12663771228576
  C           0.84821753159769     -1.38091303775467     -1.00864330695666
  H           2.06113141080618      0.27497943337051     -0.24678225424675
  Cl          0.94400733829215      2.70331255409751     -0.85397034190115
  C           0.05738723900657      0.03761380070910      1.24460076041083
  C          -1.25450459542225     -0.13502719343880      0.81014840941207
  C          -1.86033853153029      0.87372051916684      0.04270114120361
  O          -0.91562664822768      0.96557382498927     -1.40287260848440
  O           0.64207956438842     -0.98189084172189      1.93387178626101
  H           0.38271465341746      1.03836425218435      1.51917779173727
  H          -1.62235070700919     -1.14744426297655      0.74637894920350
  H          -1.71624478948735      1.90223101644666      0.35338553542489
  H          -2.83948581786091      0.67460197487463     -0.36730700179494
  H           0.93415327794624     -2.07331627111961     -0.17315758745155
  H           1.61456114774409     -1.63252176951140     -1.74043909722570
  H          -0.12938779151614     -1.49414290259421     -1.46844698933101
  H           1.50020637212944     -0.71317087109133      2.27898892835529
