18
Coordinates from ORCA-job NEB E -37.698427809640
  C           0.04632411055252     -1.23622169460309     -0.90857829218834
  C          -0.69587582282314     -0.08747369966478     -0.94919122856743
  O           0.56734369982521     -1.98158633880421      0.08858150346296
  H          -0.11613480396390     -1.76506662104182     -1.85764110050561
  C          -1.77242337172682      0.12403043901309     -1.99244475008131
  C           1.98721991836623      0.24967141177393      1.13640869946911
  C           1.08035235718478      1.10318987622198      1.59492776571135
  C          -0.34547769520852      0.94554142775459      1.12123483528622
  O          -0.27169223193936      1.03553053018706     -0.27941763031365
  I           3.68377528432638     -0.09442087828432      2.47212123626765
  H           2.07744488000471     -0.61277014293922      0.52650488942311
  H           1.43230815889711      1.92830722632122      2.19124960713411
  H          -1.06104175359768      1.63585621368470      1.57637604221552
  H          -0.67996899989702     -0.05798035380621      1.45200738441811
  H           0.35055113015321     -1.57143159199513      0.94205801534642
  F          -1.37614099428064      0.71183035953698     -3.14774800854863
  F          -2.31774138893597     -1.06496439158797     -2.38549076908491
  H          -2.58882247693707      0.73795822823319     -1.58095819944468
