18
Coordinates from ORCA-job NEB_reactant E -37.758305106020
  C           1.76438033659931      0.18713846366692     -0.05157016560306
  C           1.43897828804525      1.40527085886430     -0.49545202802325
  O           2.17323487198559     -0.10610467690758      1.22289188542608
  H           1.70837847229347     -0.64049642283934     -0.74412004587470
  C           0.98813017587841      1.56289864667375     -1.92828538681439
  C           4.22331675926121      3.77009359445390      1.71087205274593
  C           3.48662404764011      2.73537810725189      1.36253814439205
  C           1.98658354020451      2.74638254622369      1.42382695295509
  O           1.40450631994858      2.60749884043747      0.14063311309115
  I           6.32407054326018      3.75271511550447      1.64433274072281
  H           3.81797033909243      4.69859869728503      2.07508373653378
  H           3.93290614602966      1.82341602837720      0.99492396407414
  H           1.62131736810440      3.71071968341042      1.78530319519314
  H           1.64265828080100      1.94923273455772      2.09133860456788
  H           2.44818540695517     -1.02636924639303      1.27619399939602
  F          -0.26497960310941      2.07005572077910     -1.99714613928872
  F           1.78410778895334      2.43314560931765     -2.59399338472877
  H           0.99463091805677      0.61212569933644     -2.48277123876516
