18
Coordinates from ORCA-job NEB_product E -37.766739359710
  C           3.17720552390538      1.03144776432013     -0.36257520446179
  C           1.68924943803160      0.96604085386248     -0.63414985470874
  O           3.62118459160785     -0.13650545903972      0.24353787968987
  H           3.72252266272359      1.15007741401011     -1.30836938739728
  C           1.10009896105358      2.06556471978494     -1.53881146157027
  C           3.42297882226845      2.28413439655295      0.51477417135667
  C           2.66744549701474      2.23482119783012      1.79289441538616
  C           1.87912130526726      3.20875411494624      2.21065909159765
  O           0.98085858278142      0.13256486713590     -0.13735178569343
  I           5.55609037339303      2.35858646746288      0.94951835325037
  H           3.20963092437587      3.19288815751201     -0.04656010290466
  H           2.81537103353359      1.34136628490448      2.38490577464788
  H           1.73119106819301      4.10847175700136      1.63671854353637
  H           1.34372078822627      3.13784987170663      3.14088952044598
  H           2.87509039127528     -0.56290480025827      0.69136023576581
  F           0.67102226620541      3.09710350184829     -0.77464127915649
  F           2.03221291833448      2.57100240595826     -2.37546998405578
  H           0.25000485180922      1.69493648446123     -2.13062892572830
