18
Coordinates from ORCA-job NEB_product E -38.724434677960
  C           1.29574508695666     -1.68403008185267      1.15178722808101
  C           2.70438987623297     -2.26134111121099      1.35004195004203
  F           1.36146604567093     -0.32642126501315      1.36188847346161
  H           0.96139189413792     -1.83557361594839      0.11923904448290
  O           3.15339736599885     -2.82453263068629      0.23622927044249
  C           0.32049926145204     -2.29971208671543      2.17232515473607
  C          -1.00688305703531     -1.59492899418576      2.12357147265304
  C          -1.50238213706739     -0.90315194655221      3.13042767590333
  O           3.31202477027867     -2.20776301061296      2.37927550317219
  C           0.12644072978935     -3.78597673990533      1.87196952253828
  H           0.77032720260298     -2.20671791167265      3.16655253846291
  H          -1.53455792283541     -1.68046340797463      1.18376672754273
  H          -0.97588262047172     -0.80205448295044      4.06479035020921
  H          -2.45054312557161     -0.40037592829258      3.05667819998321
  H           4.03049418706877     -3.21956719275171      0.37191309268393
  F          -0.32973489954201     -3.97415895233163      0.61065824920601
  F           1.29575956791291     -4.46726920926379      1.94816080563231
  H          -0.58565222557859     -4.26336143207939      2.56212474076674
