18
Coordinates from ORCA-job NEB_reactant E -38.692865707760
  C           1.67067475877044     -0.43648253760173      0.12787659708248
  C           2.36512607988930     -0.89945558606358      1.16548503544994
  F           0.32186404259068     -0.29074768468947      0.11617708250738
  H           2.14258681683787     -0.15124712884991     -0.79414927510784
  O           3.70936395861135     -0.99430943841190      1.04326100938977
  C          -0.70818779709842     -3.52799233576089      2.78032847038340
  C          -0.04627073425906     -2.61120903078911      2.09587427723491
  C           0.58722668443599     -1.40641057006346      2.72039499221034
  O           1.96732624394088     -1.29898211375594      2.40204887951206
  C          -1.35479569437771     -4.72831741532948      2.15838900754588
  H          -0.85536366414309     -3.46118055000386      3.84848176240262
  H           0.07124455859998     -2.70534486377966      1.02537930341378
  H           0.56353567644055     -1.47699526565864      3.81041739227303
  H           0.05013977567659     -0.50335026132332      2.41000769967593
  H           4.05957789581950     -1.32358776280075      1.88229175258547
  F          -2.68218122074107     -4.76279887689492      2.45387687323903
  F          -1.26443636062811     -4.72598960507621      0.80987133166527
  H          -0.92103102036567     -5.67749897314718      2.52058780853654
