20
Coordinates from ORCA-job NEB E -33.348475232490
  C           0.56999587958639     -1.29473567603042     -0.51986554156721
  C          -0.45725491366052     -0.35388726407349     -0.29894509002504
  Cl          0.38599926985004     -2.89745608592975      0.16836084748968
  H           1.01100677313221     -1.36203692599499     -1.50884465051187
  C          -0.61051570399869      0.81145697715789     -1.24637562099239
  C           1.91559960017085     -0.52631721018885      0.57056463346978
  C           1.32082989135644     -0.47973709659396      1.83877108971600
  C           0.15822945321801      0.31284410782592      1.97931541229816
  O          -0.95235261962052     -0.25995118068413      0.89213065118402
  F           2.97285901461472     -1.34540005580852      0.40496117969189
  H           2.08623166535721      0.39441773553182      0.01314652434114
  H           1.45453515647409     -1.34061988335013      2.47574490986303
  H           0.21901155335496      1.33886358421096      1.62533463475783
  H          -0.37715627149047      0.22282648316354      2.91516030892108
  C          -2.08845253205371      1.06891868123549     -1.53976460461573
  H          -0.06781359323457      0.61900438023653     -2.17152477471455
  H          -0.18505844124678      1.70338267203982     -0.77066881510270
  H          -2.51959672424109      0.22336179048655     -2.06939472853739
  H          -2.20491254874628      1.96072373022235     -2.15014804077376
  H          -2.63118490882229      1.20434123654339     -0.60795832489199
