22
Coordinates from ORCA-job NEB E -33.597007534070
  C          -0.91185684718346      1.45878831339396     -2.15886786045998
  C          -0.70142411871195      0.33003985075772     -1.27310246879385
  C          -1.84871210278551      1.37289515263433     -3.30463366446191
  H          -0.25503626071793      2.31044603050914     -2.07897989353918
  C           0.21920399053276     -0.61734257601726     -1.65732438852382
  C           1.15860200701292     -1.27424309099920      1.46559685182209
  C           0.04262145605255     -0.56069328290504      1.57868791578941
  C          -1.17183766690389     -0.83328510747247      0.74573642564711
  O          -1.44690196238180      0.24151665499560     -0.14756861890527
  O           2.31371492185687     -1.12989547311804      2.13897756613125
  H           1.23223482541020     -2.10745504193616      0.77882132210647
  H          -0.03813248259163      0.28522977610400      2.24336932124769
  H          -2.06665523820271     -0.89569007673073      1.37250152642762
  H          -1.04825066053300     -1.76639248866829      0.18331753617817
  H          -1.40900474864675      0.80786365082215     -4.13622304490531
  H          -2.09419787558000      2.36648817115266     -3.67242193784740
  H          -2.76413742886795      0.85386176563137     -3.01804013403573
  N           1.02285744886713     -1.36510783891408     -2.04267213010674
  C           2.40985835657708     -0.07053184368563      3.06372939951123
  H           3.41317179054559     -0.12637996419694      3.48158841068211
  H           1.67239966078606     -0.17730193910612      3.86529774238239
  H           2.27148293546542      0.89718935774901      2.57221012365364
