22
Coordinates from ORCA-job NEB_reactant E -33.698491724520
  C           1.44818651323072     -0.45228878513124     -0.52125283039768
  C           1.52548675495249     -1.38852644101834      0.43848248007406
  C           0.42351485293420      0.62590610859913     -0.54900160723230
  H           2.16229418908204     -0.48808614914666     -1.33039235572425
  C           2.54731446456791     -2.36828330255461      0.34166982274773
  C           3.20444478783946     -2.48437272641287      3.55647152221676
  C           2.09537569990378     -1.77926775815953      3.36454246919985
  C           0.94049580463146     -2.28970025052074      2.55817709844204
  O           0.62825644935902     -1.43401558507870      1.46698268300420
  O           4.30454119921148     -2.14246942183419      4.25475841167591
  H           3.32186902340201     -3.47957881300160      3.14795414982318
  H           1.97097750715729     -0.78031788319857      3.75402861358584
  H           0.02304209316339     -2.28978276131662      3.15588025421344
  H           1.13921785130687     -3.30960419004758      2.20558926971831
  H          -0.21776533155175      0.51160385179073     -1.42321073956168
  H           0.90494179319794      1.60103826620096     -0.62001252783246
  H          -0.18927325053095      0.58792104058522      0.34693218681973
  N           3.37589551034656     -3.15385127014436      0.22671729142491
  C           4.33823327260366     -0.86177604036532      4.84104271506627
  H           5.30226308360364     -0.78444301940432      5.34013139048669
  H           3.53501935115264     -0.74112069736642      5.57475483296718
  H           4.25506838043612     -0.07748417247437      4.08235486928226
