22
Coordinates from ORCA-job NEB_product E -33.685586675660
  C           2.22818404817297     -0.81045283992754      1.15644212218879
  C           1.25816273883562      0.34293213881383      1.02423525251856
  C           2.25075109005880     -1.54084863433670     -0.19368350505235
  H           3.22828884553884     -0.41338582386987      1.36385719125984
  C           1.87171815184524      1.46693907618674      0.33174581594374
  C           1.78491783293795     -1.76017613265904      2.29543397506808
  C           1.74922880414145     -1.00818310935672      3.59969193055560
  C           0.72670421931956     -1.03967877590630      4.43196029913911
  O           0.11402778236858      0.34927137291897      1.39467714252393
  O           2.57639777824773     -2.93571235936979      2.33012031566925
  H           0.78052097035274     -2.13153044263390      2.06274640113815
  H           2.62820573086006     -0.41752544384006      3.82695312501673
  H           0.72828146955498     -0.48512576158077      5.35500900747243
  H          -0.15772834543216     -1.61547801229828      4.21811412157941
  H           1.24294582831023     -1.83595296766914     -0.47843156621704
  H           2.85647174975817     -2.43867824324543     -0.10006919244666
  H           2.66832649415557     -0.90514169534584     -0.97175654750471
  N           2.40892524078701      2.32501394891021     -0.20274993159084
  C           3.85685506846314     -2.82403898766423      2.90589487713134
  H           4.32456715848847     -3.79732849460168      2.76673348758771
  H           3.79989290118587     -2.60569096258654      3.97725656142806
  H           4.47145444204917     -2.06212784993792      2.41481911659086
