21
Coordinates from ORCA-job NEB E -33.376892971330
  C           0.54804703286884     -0.66158272595924     -1.02685637784442
  C          -0.37600501928393      0.33351861532079     -0.74352051494017
  C           0.09342514974105     -2.08627229367981     -1.20250976780235
  H           1.35859125606277     -0.35758965956114     -1.67801383892181
  O          -0.04895402935357      1.59035663676846     -1.15027533737878
  C           1.40875211339246     -0.74408677930350      0.87395024247200
  C           0.60815069010852     -0.00287990592397      1.71810759135292
  C          -0.78990682497988     -0.26445239880441      1.64433925263121
  O          -1.30162771881678      0.19576359733013      0.15083630747329
  F           2.68015136699940     -0.33890925634325      0.68416631851903
  H           1.35449747391068     -1.82541387510781      0.85525877506177
  H           0.92524950048690      1.00952369514909      1.93253124216430
  H          -1.43430945834789      0.33548562035835      2.27540365631798
  H          -1.07490507563244     -1.31236690317140      1.64211922192532
  H          -0.69167794210740     -2.34099161128942     -0.49544762404674
  H           0.92217716010347     -2.78216502610511     -1.09370946120276
  H          -0.30789018317774     -2.20746213318682     -2.20935421708825
  C          -0.82567054415858      2.65465869917367     -0.63543206294821
  H          -0.45865216016312      3.55288523757366     -1.12633398403779
  H          -0.70478538285380      2.74560266304033      0.44664359366238
  H          -1.88465740479898      2.50637780372140     -0.86190301536893
