18
Coordinates from ORCA-job NEB E -30.786798293210
  C           0.51427780631586     -0.16295162594951      1.10072178665541
  C          -0.73431464707121     -0.76925683627421      0.83723005005827
  C           0.56557919267550      1.16614051879462      1.56232220495839
  H           1.31303508488277     -0.79008557674795      1.48211670189461
  N          -0.80800665296453     -2.14403623235813      0.84450301079472
  C           1.08277443201491      0.24563744576100     -0.83653698652268
  C          -0.01753195899419      0.99660364071484     -1.25855740150638
  C          -1.26719854400890      0.37957377418630     -1.34506266543709
  O          -1.69535457617871     -0.11901152385025      0.31333966564003
  O           2.31779458766433      0.77638768944350     -0.70562643702928
  H           1.15241149969758     -0.79854898163178     -1.12418417265249
  H           0.02088105638319      2.06675682607273     -1.10267813541647
  H          -1.31637564249065     -0.61945903441492     -1.75927325341517
  H          -2.12502131382933      0.99574179299398     -1.56577538212885
  N           0.65376522606598      2.25090555230138      1.92618029171133
  H          -1.72678528716055     -2.53587156544506      0.71484898682808
  H          -0.18387685798017     -2.66301990003942      1.43788181500238
  H           2.25394659497810      1.72449403644288     -0.52145007943479
