18
Coordinates from ORCA-job NEB_product E -30.830690144160
  C           3.19248215307048     -0.50441080127315     -1.69179337361030
  C           1.99260226342116     -1.45765572968142     -1.82831704098017
  C           3.19966124210849      0.23997406992700     -0.46707424471760
  H           4.11026583376179     -1.09973752592189     -1.75891846983148
  N           1.02490245354196     -1.30118980199531     -0.90551118769150
  C           3.17820066043867      0.47247879479630     -2.92107429023845
  C           1.93984946881761      1.32228614464099     -2.86164450450979
  C           0.86517987522470      1.10710947127416     -3.59546868346684
  O           1.93446925011966     -2.26287324566074     -2.72425766894122
  O           4.35582843057890      1.22638696951442     -2.98090318367964
  H           3.17425463267787     -0.15002755011021     -3.82134682244234
  H           1.97828394194269      2.13763587851196     -2.14845443007464
  H           0.81995771261275      0.29663309358050     -4.30355327449661
  H          -0.01073908706834      1.72767617729528     -3.51501751658484
  N           3.19099450904755      0.86342271978487      0.49392756769992
  H           0.20999469493859     -1.89010035587284     -0.96172469505800
  H           1.08746981237667     -0.62712498188189     -0.16193369297452
  H           4.35214215238880      1.88801667307197     -2.27733448840194
