18
Coordinates from ORCA-job NEB_reactant E -30.820689304070
  C           2.11227549590433     -0.12863486358096     -0.36069503052851
  C           1.61564908141823     -0.99564470239790     -1.27659116499506
  C           2.31602571913559      1.24165881496188     -0.49501063662847
  H           2.39313097485941     -0.52785223724994      0.60397154467992
  N           1.43270791656806     -2.31985357094029     -0.96985212023733
  C           3.61079974702073      0.34477161980948     -3.53557245817101
  C           2.54901445824719      1.11021850019377     -3.32954028150914
  C           1.17918330029613      0.57642025531832     -3.02843239711764
  O           1.17893750887988     -0.74881764242451     -2.52861567938862
  O           4.86454225768674      0.78072429292733     -3.78485893408787
  H           3.56641408664686     -0.73505791988966     -3.52126563438635
  H           2.62993762553458      2.18714417242795     -3.34547104764492
  H           0.57985030375801      0.51403353646017     -3.94484891490600
  H           0.66776761592817      1.24592611089955     -2.32703892081620
  N           2.51751377047495      2.37541841791550     -0.52536292423787
  H           1.24593816075321     -2.92430240835510     -1.75256965645196
  H           1.97615058806868     -2.70936287516930     -0.21986582414293
  H           4.88596138881924      1.74591049909372     -3.74887991943004
