20
Coordinates from ORCA-job NEB_product E -36.892340625950
  C           1.54094187547000     -2.34860538038531     -0.54091816676602
  C           1.25086586330638     -1.50564722592388      0.66240514669157
  C           1.23217344202835     -1.50044575324413     -1.77931985322938
  H           2.59910006039457     -2.62587536596653     -0.56805290386662
  I           2.36119175677257     -2.14572367783966      2.40956436242044
  C           0.68299361792221     -3.64467846292991     -0.43330007683420
  C          -0.75103834879117     -3.36222803458212     -0.77964456741823
  C          -1.70097751934789     -3.17703732893823      0.11719361044683
  O           0.47884811505507     -0.61794286879947      0.75497445710927
  C           1.25558405952735     -4.76071868358462     -1.30536997379316
  H           0.73452207740747     -3.97270175949864      0.61198507722609
  H          -0.97389795192308     -3.32465643513352     -1.83737183355832
  H          -1.50265457453138     -3.21952689597041      1.17614171428195
  H          -2.71972997000394     -2.97831773622707     -0.16623955410153
  F           2.13635901347695     -0.49536591965609     -1.86475299292475
  F           1.35905414538895     -2.20819018744680     -2.92152033609113
  H           0.22768436463094     -1.05383939890282     -1.75671840016142
  H           1.24801759629385     -4.48658430742415     -2.35595627299253
  H           0.65131144189857     -5.65579836530743     -1.17886648999103
  H           2.27615093502422     -4.99231621223920     -1.00993294644784
