20
Coordinates from ORCA-job NEB_reactant E -36.870008224870
  C           1.81806437711418     -0.02674465952274      0.01353601397216
  C           1.19149133925233     -1.09152673146905      0.52017390978630
  C           2.22172074159172      0.01879234084899     -1.42783532805782
  H           2.07268138176755      0.81795220371365      0.62576536410667
  I           0.62645485195954     -1.01509246035859      2.58110452390886
  C          -0.17700711266439     -5.39652087019364     -0.75427787629508
  C          -0.20574324847308     -4.08645677505999     -0.93085722320828
  C          -0.08084892469101     -3.08903741544592      0.17663095938269
  O           0.96458946139953     -2.18676279579678     -0.16555733368897
  C          -0.31554051145646     -6.39828879836382     -1.84720795790872
  H          -0.06143451809184     -5.80500420478149      0.24220854170020
  H          -0.31006609761701     -3.65402420470349     -1.91549034356446
  H           0.15502524799028     -3.58838165075805      1.12538489906627
  H          -1.02137507708010     -2.53073602398923      0.29080575040636
  F           3.19861956071370     -0.88421556932396     -1.71306159112597
  F           1.18690843266909     -0.29280942146590     -2.25223232453035
  H           2.59445564745323      1.01066717047001     -1.72449356505007
  H          -0.42006023159029     -5.91228091113644     -2.81324496740184
  H          -1.18698410172300     -7.02790040036216     -1.67018227231490
  H           0.55904878147603     -7.04722882230138     -1.86956917918304
