19
Coordinates from ORCA-job NEB E -47.097480813780
  C          -0.29127690165370      0.48392771705192     -0.53199917255608
  C           0.75578987669859      0.44180882291986      0.55378137341456
  C           0.09287095835181      0.93913230895912     -1.93653934144653
  H          -1.07033126301723      1.17966972022263     -0.17990595772940
  N           2.12938890751675      0.63131176012740      0.40809386790021
  C          -0.84625562233499     -0.94392585695294     -0.44781244341298
  C          -0.64532183243763     -1.41468385970865      0.91475420379080
  C          -0.57991367130389     -0.50036191507768      2.07998438536860
  O           0.31993296905830      0.53718834198218      1.83062136486029
  Cl         -2.65355021110215     -1.09916986496275     -0.82443204649792
  H          -0.36918296986465     -1.58751602051096     -1.19030718298599
  H          -0.99127873379444     -2.41734304304860      1.12417878378234
  H          -0.20437037280653     -1.01408105382751      2.97190845087042
  H          -1.59045639794832     -0.13154999200504      2.32785128093948
  Br          0.94745125642135      2.68981612932200     -1.89470353625014
  Br          1.17426436385298     -0.33119091447177     -2.92583466662451
  Br         -1.55780012305386      1.17608807911497     -2.96980505207728
  O           2.80240044421436      0.65858060099749      1.42337025946834
  O           2.57763932320324      0.70229903986833     -0.73320457081423
