19
Coordinates from ORCA-job NEB_reactant E -47.139967709650
  C           1.45212315045966     -0.59825258690198     -0.22381229912424
  C           2.05742948433619     -1.66136051654676      0.33533160943114
  C           2.05666507778061      0.55999029870751     -0.91989932292616
  H           0.37222367440763     -0.56615797936633     -0.16578850189614
  N           3.51236610568442     -1.85940440962380      0.34263465865793
  C          -0.95985950851030     -4.03713791236259      2.93199250572476
  C          -0.25987728265500     -4.01354870982084      1.80902001562497
  C           0.06523641980093     -2.74775217856698      1.08017454758301
  O           1.48118074831116     -2.68431983529312      0.95387070923658
  Cl         -1.34327476759003     -5.48514798197388      3.75412253693905
  H          -1.35803570452886     -3.14918532947150      3.40122639916351
  H           0.13561196498106     -4.91756263880946      1.37275790454037
  H          -0.30270436936605     -1.87396260997495      1.63141837196475
  H          -0.38607764372665     -2.76378666615897      0.07781068191920
  Br          0.62656858449032      1.75449052373671     -1.51643032984248
  Br          3.21677169946302      1.63090045335640      0.25610185590078
  Br          3.05334564800687      0.04289806236701     -2.53658367491935
  O           3.92801269114457     -2.86297660375776      0.85409257989228
  O           4.17439402751043     -0.98712337953870     -0.17274024786996
