16
Coordinates from ORCA-job NEB E -31.357605526820
  C           0.05538443550599     -1.30730366495968     -0.45710211593465
  C          -0.50109012047117     -0.47370674580972     -1.42991281260434
  C          -0.83466591241909     -1.93830432149553      0.44711735534541
  H           0.94063040283444     -1.88228873261498     -0.70343231761962
  Br          0.62650332401618     -0.17043161622833     -3.01135775107014
  C           0.70145890245471      0.18920753457707      0.89062379250403
  C           0.20476304490145      1.38031670442336      0.36336461298692
  C          -1.17086046547624      1.48345886146477      0.14135075895294
  O          -1.41531664888412      0.34485495996534     -1.23466177206946
  C           2.10122951055664     -0.03883475461676      0.91218754920773
  H           0.15801720024542     -0.28781286394537      1.69956613641160
  H           0.87309429669998      1.99597133305835     -0.22638516800120
  H          -1.56639875839012      2.37431752127783     -0.32297857522410
  H          -1.84875159889064      0.98306036807036      0.82140475880147
  N          -1.55523313300352     -2.43264360957529      1.18712616158359
  N           3.23123552032010     -0.21986097359142      0.92308938672983
