16
Coordinates from ORCA-job NEB_reactant E -31.397923868300
  C           1.68917518128118      0.09644225615982      0.16249321863524
  C           1.54940920059556      1.29180541866899     -0.43011873408939
  C           1.60648873544620     -0.16027879262007      1.53683100046217
  H           1.86492742000334     -0.77375903107540     -0.45301342318776
  Br          1.64727168833631      1.40584332125676     -2.32454556699229
  C           3.12009376376382      2.26342355778712      3.16164962939903
  C           2.77419318708138      2.74812457297686      1.97178556078068
  C           1.37168888501400      2.76149291485026      1.44872223219344
  O           1.32491115744672      2.51134865201493      0.04795513766295
  C           4.44997969713054      2.30855719622906      3.62596125939582
  H           2.40362656851433      1.80271051567347      3.82869569633544
  H           3.51439176728236      3.18969116846948      1.31651790549967
  H           0.95712261402039      3.77235961398150      1.54227229899194
  H           0.72960658643553      2.06137094651101      1.99223353745654
  N           1.53449039992617     -0.42211755994736      2.65290260455129
  N           5.52982314772221      2.34958524906357      4.00715764290523
