14
Coordinates from ORCA-job NEB_reactant E -23.001024127210
  C           1.98225675985557      0.03105928166179      0.09287479923579
  C           1.25934856266584     -0.00088883580443      1.19937243993210
  H           2.20161881183711     -0.86766018724146     -0.45331127154561
  H           2.36718909303917      0.95816684473316     -0.28527036982147
  H           1.02982120744263      0.89842281394720      1.76260380198368
  C          -0.29812024683599     -2.95538324043527      4.44411384479304
  C          -0.49655570356736     -2.40126473205245      3.26465128456078
  C           0.01289403169686     -1.04527161949497      2.89799842369217
  O           0.75616085333386     -1.16061092300771      1.70181620260061
  F          -0.78408478750714     -4.16750020259795      4.74556430213597
  H           0.23267126728592     -2.51580115045541      5.27682996688200
  H          -1.03177423072327     -2.93315832790661      2.49295257882879
  H           0.63902333673765     -0.63803404125589      3.70477373269349
  H          -0.84044895526086     -0.36497568008999      2.74253026402866
