14
Coordinates from ORCA-job NEB_product E -23.012738572990
  C           1.45841742370660     -1.54545712506266      1.53401431036348
  C           1.26146865144914     -0.09604320361167      1.19736850121397
  H           0.97125837340218     -2.17566970015958      0.78806033813212
  H           2.53351694133782     -1.75010401841489      1.51446518648919
  H           1.59551311076497      0.59246776883300      1.99954980303193
  C           0.93387835638469     -1.87456626121534      2.93772329961314
  C          -0.56354553748283     -1.82970629989538      2.98095118176127
  C          -1.25277851167192     -0.84639661878446      3.52545428071501
  O           0.80715894885655      0.31985240766987      0.17233587825172
  F           1.36804462974998     -3.14586007980001      3.26982203563355
  H           1.37671353466560     -1.20100036139907      3.68345323498068
  H          -1.05103178033466     -2.67193540876253      2.51112881349261
  H          -0.77114455993323     -0.00712560190027      4.00005045541008
  H          -2.32826958089488     -0.83575549749702      3.51392268091124
