19
Coordinates from ORCA-job NEB_product E -48.092824991970
  C           3.25290714122498     -0.75966949627822     -1.80545852303407
  C           1.86346281021025     -1.29935659994486     -1.73682638754944
  Br          3.20113722185095      0.50023928594318     -0.29062463778070
  H           3.98906349078730     -1.51849748841596     -1.52710396423159
  N           1.67069182940040     -2.28394845367428     -0.55319527922820
  C           3.56334983517916     -0.10451100474404     -3.15625371822144
  C           3.00794363481650      1.29293543502958     -3.26229271161572
  C           1.91678491825088      1.58864464626865     -3.94075761219405
  O           0.92107084072077     -1.05880274027613     -2.41027487495177
  C           5.06750338286212     -0.11107188964266     -3.44270417892177
  H           3.08946340328523     -0.72817538441037     -3.92498563422351
  H           3.56008063470953      2.05191777324940     -2.72768090141895
  H           1.35216166300576      0.84270007234205     -4.47447925407684
  H           1.53895132263273      2.59498199642160     -3.97579029964372
  O           0.53395218273288     -2.55786237798601     -0.29738883716652
  O           2.67235280234437     -2.70222472054321     -0.02815251716858
  Cl          5.36042546717057      0.64409378835630     -5.02682246635148
  Cl          5.98436630651265      0.77108846035433     -2.20619033309616
  Cl          5.67663111230298     -1.79258130204933     -3.50431786912549
