15
Coordinates from ORCA-job NEB_reactant E -30.822411625030
  C           2.11415849854407      0.05413724575939      0.21759721812397
  C           1.34982415273890     -1.04541828649346      0.27287714928576
  I           2.98874352495419      0.64048586274168     -1.58059839262359
  H           2.30968796928459      0.67164323389331      1.07383736762574
  C           0.77156394399329     -1.40769166629222      1.51801119614357
  C           0.53800056512046     -4.84984184943502     -2.25441383467516
  C           0.22265619341072     -3.58656990893967     -2.04462261210099
  C           0.30493725646188     -2.93967229891119     -0.70120358184870
  O           1.13381396392684     -1.79482176303544     -0.83137789443935
  F           0.44042141161759     -5.40730749743713     -3.46477503757155
  H           0.87220328056135     -5.55653172540651     -1.50748447186553
  H          -0.09190695934836     -2.95559810575679     -2.86186034906408
  H           0.72069742217122     -3.63241926377091      0.04213290185419
  H          -0.69908395904613     -2.63363375220885     -0.36986083340354
  N           0.30288273560940     -1.69946022470718      2.52294117455925
