21
Coordinates from ORCA-job NEB_reactant E -46.076530037110
  C           1.89554561587929      0.00055852457816     -0.19857902232770
  C           1.51583772887104      0.88689064321509     -1.11880312766445
  F           2.17316390044263      0.30666003739349      1.07977291778686
  H           2.02189115818001     -1.04930744651855     -0.40459158681967
  C           1.24528676784613      0.38660981170305     -2.52571016928140
  C           3.78739449415001      4.09036790357178     -0.25417930710283
  C           3.10571994156973      3.09055068277334      0.29808531037017
  C           1.62705979309140      2.95671534364242      0.10898442895722
  O           1.29243479383505      2.21091284242964     -1.07367157372800
  O           5.10715779204598      4.33567192677304     -0.20080521516330
  H           3.29020546322505      4.86022987352236     -0.83038962677519
  H           3.59138295508304      2.31360941628158      0.86527398241373
  H           1.16820398992304      3.92899628525914     -0.07936089498949
  H           1.15781758267984      2.49381742867282      0.98121636482616
  F           0.00668196662429      0.68177353238133     -2.92976122907015
  F           2.08529594483798      0.93418241660758     -3.41160336830191
  F           1.38087954827126     -0.94134937435731     -2.64265283059054
  C           5.91945999025143      3.41949386330204      0.49971032059826
  H           6.93761213002176      3.79393512472214      0.41389002790046
  H           5.85790495366810      2.42031245752194      0.05858612341295
  H           5.63496348950293      3.36696870652493      1.55468847554881
