21
Coordinates from ORCA-job NEB_product E -46.061584830630
  C           3.13892051306998      0.97629707393779     -0.57946480643913
  C           1.71625560248933      0.57776028450628     -0.86126140375940
  F           3.50508330398069      0.45215403112506      0.63215111298508
  H           3.82823245748944      0.56929606519487     -1.33029130807701
  C           1.25989651011250      0.85916921976865     -2.32750499127701
  C           3.28143717455173      2.54561081566764     -0.56339879239833
  C           2.49684251464084      3.08712750747782      0.60046608262938
  C           1.49171095326738      3.92889867087545      0.45643047079117
  O           0.94315375245723      0.12739194105352     -0.07108154343124
  O           4.62864693946084      2.92195751808369     -0.62664058380166
  H           2.86425303185039      2.91868374263394     -1.50553767724414
  H           2.78937108384520      2.72126144089092      1.57397530573775
  H           1.18341036734674      4.28912995452823     -0.51121318652158
  H           0.93623729840889      4.28987451419619      1.30442994945078
  F           0.33534330181404     -0.00738430316368     -2.72598651547069
  F           0.73344421587868      2.08975653899598     -2.42936012623737
  F           2.27315808668062      0.79936565489755     -3.20310189342595
  C           5.38348661769454      2.87760116419661      0.57159282863440
  H           6.40365827823265      3.10677812979028      0.27029164576346
  H           5.35878930033967      1.89186740397223      1.04035375975002
  H           5.04006869638863      3.63250263137096      1.28445167234147
