14
Coordinates from ORCA-job NEB E -30.326658936000
  C           1.17491106529874      0.69822165424783     -0.50188302485196
  C           0.59207594429183      1.24453731002055      0.64841457958463
  F           0.72953072396808      1.16310861614297     -1.68343082342776
  H           2.24736308652952      0.52651638522664     -0.53934140633432
  Cl          1.48180292702316      0.90635282445184      2.13670487013517
  C           0.33093307268953     -1.04700261614210     -0.45097988269798
  C          -1.01743305073727     -0.71230161415106     -0.42190608672300
  C          -1.48695885619235     -0.00018570406033      0.72139031697864
  O          -0.66950026183064      1.40193395920963      0.73700685033144
  I           1.08368045721539     -2.10460483959391     -2.13054468197498
  H           0.81201176892517     -1.39287249325733      0.45623050889178
  H          -1.55786133160823     -0.61382115994331     -1.35143445524987
  H          -1.20369236825512     -0.40317608636440      1.69166885250905
  H          -2.51686317731781      0.33329376421297      0.68810438282916
