14
Coordinates from ORCA-job NEB_reactant E -30.350413140470
  C           2.07372189262870      0.01407957093519      0.16161126312892
  C           1.30477178196035     -0.94302026826202      0.67914832206609
  F           2.38723002466288      0.02811250895241     -1.14571247172891
  H           2.49824892382011      0.83046910323723      0.71823964099034
  Cl          0.95957210245712     -0.86663663569083      2.37496638608402
  C          -0.42115333844562     -5.17410158793288     -0.36445570490117
  C          -0.48431672144093     -3.86351654724234     -0.49250721723837
  C          -0.03070398962213     -2.91837229039339      0.57581614845669
  O           0.79771414619903     -1.94719846433117     -0.04546828066300
  I          -1.09958583021592     -6.50166808063174     -1.83924695543881
  H          -0.03941638083732     -5.66948900912496      0.51264140437124
  H          -0.86162471088800     -3.39298199791883     -1.38797887384611
  H           0.52005539623924     -3.44629282405811      1.36403684966693
  H          -0.90511329651751     -2.42658347753857      1.02700948905214
