19
Coordinates from ORCA-job NEB E -39.895613758680
  C          -0.24383778616302     -1.27125335620988     -0.37069253803942
  C          -1.14625951808661     -0.45735868877089     -1.06389071449764
  I          -1.02665621168453     -2.47142993574937      1.18838304816568
  H           0.47129983600889     -1.82471068202526     -0.97021282319149
  N          -0.72901580579951     -0.01769563836314     -2.37991702546688
  C           0.79607240424572      0.12673314452988      0.47685143585648
  C          -0.19517058262233      0.89713353835544      1.07965218832306
  C          -1.20803092178892      1.51676965253252      0.25435264186590
  O          -1.94760588909595      0.34188181156432     -0.41369275186976
  C           1.83068232616908     -0.55564454345465      1.34484892114091
  H           1.23776027920318      0.50192432314430     -0.44399190240775
  H          -0.43535276573505      0.70966512106158      2.11766735362582
  H          -0.84382679882451      2.11667706744330     -0.58167740416530
  H          -1.99321573928954      2.03199462586402      0.79840220603397
  O          -1.21050463329425      1.01567270338004     -2.79289017770942
  O           0.07754151695360     -0.71335243872141     -2.97135497146937
  F           2.89117460227483      0.29741158057251      1.51129892589018
  H           2.23045240607103     -1.45988122266119      0.87378571817223
  H           1.44449328145787     -0.78453706249212      2.34307786974282
