19
Coordinates from ORCA-job NEB_reactant E -39.920964200100
  C           1.06962402623584     -0.19117025476222     -0.43240758486023
  C           1.36871814684814      1.10881156124140     -0.32187398145142
  I           1.28603556809246     -1.45778684127837      1.19461554428368
  H           0.67682986835220     -0.61510494638419     -1.33905314387746
  N           1.16779167929790      1.95252633428005     -1.49427594256749
  C           4.74994641091662      2.49709642717488      2.25676412251676
  C           3.43435265544895      2.58714355460371      2.16521843254174
  C           2.69546952730291      2.72585298201983      0.87298602713252
  O           1.72288722649483      1.66739948323759      0.83114240040589
  C           5.50071267840294      2.37386281009312      3.54277954738830
  H           5.38475715865861      2.52537219340897      1.38142142768483
  H           2.81497731495682      2.54738601720357      3.04888925889258
  H           3.38174856625144      2.65472207212183      0.02317833586368
  H           2.17220957813546      3.68843270474862      0.83261161174057
  O           1.12025789817975      3.14965679745788     -1.31442034832919
  O           1.05475445009471      1.39538135730060     -2.56501176410304
  F           4.66968560866823      2.39438283326558      4.63055000427467
  H           6.20487754081359      3.20687264564018      3.66387200899041
  H           6.05306409684859      1.42626226862697      3.58071404347319
