19
Coordinates from ORCA-job NEB_product E -39.924883663670
  C           2.88971867246904      1.04969411044714      0.48464261005102
  C           1.72442505160233      1.54139882818093     -0.29057187996261
  I           1.93836424243192     -0.57367247934767      1.59446275515547
  H           3.60896487155286      0.54685414639925     -0.16421748149927
  N           1.42789422636182      0.65691851350499     -1.53897942698426
  C           3.54735109246810      2.10599280017754      1.36296241231438
  C           2.58812925580804      2.78746155479324      2.29781363463532
  C           2.43370709936227      4.09434062823392      2.37023894395741
  O           0.99593868561142      2.45414268646190     -0.10080190496364
  C           4.70964821532989      1.48915621863474      2.15459164427845
  H           3.97416918228678      2.85700660568326      0.68491168163030
  H           2.03810032037369      2.12721701091517      2.95590299766714
  H           2.97891747553413      4.77027233243726      1.73287664429901
  H           1.75320709368451      4.54199966623573      3.07220698208006
  O           0.44912060179818      0.95925532434610     -2.15775997336912
  O           2.21412510214125     -0.22700086216433     -1.78289492083121
  F           5.50352017948060      2.48364174239110      2.65123011776668
  H           5.34561215363096      0.86489327503314      1.51614643095760
  H           4.34938647807219      0.90842789763660      3.01053873281728
