18
Coordinates from ORCA-job NEB E -39.099382800930
  C           1.13844684945927     -0.67466420407243      0.01457645719922
  C           0.43787735199557     -0.21223007852000      1.14572948813836
  H           1.19126387264958     -1.75201064871968     -0.06297573612847
  H           2.08047866453287     -0.18681132660716     -0.20270706404822
  C           0.69022015601355      1.22032012508326      1.60398556042508
  C          -0.00594472009491     -0.36121733554580     -1.39844849468692
  C          -1.31389529352312     -0.16998676835246     -0.87807307585225
  C          -1.68698839470252     -1.07759839992797      0.15766256743357
  O          -0.76292104473478     -0.65305103480858      1.38588302020750
  C           0.54227204680171      0.72816308140585     -2.14849522205506
  H           0.16904178299375     -1.31255840237487     -1.89712678678234
  H          -1.67752678279698      0.84658775263009     -0.79657658628585
  H          -1.43313840885110     -2.12370986866848     -0.00812611018946
  H          -2.67513987810224     -0.95875647972383      0.58683049485619
  F           0.01298666252604      2.11126034397181      0.84790389200035
  F           0.30932036573466      1.42752296478105      2.86632402505413
  F           1.98470750790676      1.55201781675253      1.51841866026223
  N           0.99893926219186      1.59672246269666     -2.73478508954805
