18
Coordinates from ORCA-job NEB E -34.227650112240
  C           0.85953661707682      0.04990666519992      0.62203204841240
  C          -0.21513526025351     -0.76164083490483      1.04864939322388
  C           0.75020523774439      1.53832726868060      0.88576653745343
  H           1.85786950474660     -0.33060699050127      0.82949040056587
  C           0.01449758586745     -2.12251521684577      1.35372613468280
  C           0.61502138690893     -0.12056283256992     -1.23667404305407
  C          -0.69226170064000      0.33046459545959     -1.43097642249191
  C          -1.73950109088405     -0.40065311697494     -0.74695764155813
  O          -1.44775543577903     -0.36078193982105      0.75324779811046
  Br          2.02842610929359      0.84470055670049     -2.10811196518214
  H           0.82101889062727     -1.18230251386864     -1.32337415223469
  H          -0.85905988131287      1.36801353641312     -1.67786112154818
  H          -1.77359160101525     -1.46602152575832     -0.98458684472760
  H          -2.72547741670773      0.04762341206853     -0.82967330065829
  F           1.25812444158488      1.78574453885733      2.13529187752720
  H          -0.29469453263142      1.86533305903850      0.89427583290650
  H           1.34393341895718      2.13814135661673      0.18920913751009
  N           0.19884372641672     -3.22317001779006      1.62652633106239
