18
Coordinates from ORCA-job NEB_product E -34.259079928130
  C           2.31577939657312     -0.30636501249453     -1.63838334728856
  C           1.50905038602504     -1.37358370698196     -0.90811105006865
  C           2.26883701300499      1.02559608303677     -0.87398134633281
  H           3.36475037006029     -0.63536713569799     -1.63969901860150
  C           1.96134546891018     -1.61009979635607      0.45289240462910
  C           1.81089598664183     -0.18338516386556     -3.07830395781919
  C           0.47209825267208      0.45784624569272     -3.20787219593982
  C          -0.56352897071961     -0.14491068416507     -3.76239311661100
  O           0.59613987400828     -1.98929334927970     -1.39171381519947
  Br          3.12888897508137      0.87122232477658     -4.12664379229291
  H           1.80679509319803     -1.17098386842906     -3.54573984766234
  H           0.39851350208618      1.47394572404429     -2.84545274138249
  H          -0.50155582060824     -1.15307585777771     -4.13646721558874
  H          -1.51917964976361      0.34183777514858     -3.84571837099310
  F           3.04395881432109      0.95049284489258      0.24823567139253
  H           1.25432144022832      1.27799315286498     -0.54700738548468
  H           2.68392825274788      1.83069382226227     -1.49076457416057
  N           2.30486161553277     -1.83776339767111      1.51962369940419
