18
Coordinates from ORCA-job NEB_reactant E -34.252998310630
  C           1.87889529494250     -0.13326973602506     -0.21452696260475
  C           1.38080720221678     -1.25161948527305     -0.76216075609442
  C           1.69334360320988      1.30538189541462     -0.58015668075314
  H           2.51065360965745     -0.26850023029886      0.65263036784047
  C           1.73544845031029     -2.47915538346333     -0.12130486318695
  C           1.44219337977290     -0.24693926227367     -4.99398853673724
  C           1.51599943945909     -0.28441300879063     -3.67569719996286
  C           0.31835462249877     -0.49005065368073     -2.79289955340498
  O           0.54729182775988     -1.47812855522542     -1.81264580437654
  Br          2.95044564724641      0.03532116166349     -6.09196757226505
  H           0.52237391535916     -0.35032969125664     -5.54781120356999
  H           2.46996622470487     -0.19362568017612     -3.17423448993325
  H          -0.52300255701957     -0.87363245903546     -3.37637754743479
  H           0.01632666530465      0.45941259909305     -2.33222509064257
  F           2.55766138946868      2.07149566598520      0.15900359999167
  H           0.68448462140846      1.66312747683184     -0.33001629379334
  H           1.91522378483758      1.52752304138520     -1.63130972817391
  N           2.02883287886223     -3.45149769487441      0.40568831510162
