21
Coordinates from ORCA-job NEB E -40.896007958240
  C          -0.33065512982242      0.70996801037705     -0.76764088111543
  C          -0.85474793277371      1.61662852054243      0.15721490098141
  O          -1.18889512625820     -0.14954081023849     -1.37534900654356
  H           0.52187123568391      1.02457230929202     -1.36376622548966
  I           0.47202676178741      3.29348534683604      0.58003132555463
  C           0.49607275630417     -0.59546980123470      0.66724852612637
  C           0.11077261862490     -0.13607068853446      1.91743739830732
  C          -1.25763758557465      0.05079218930300      2.15604041229663
  O          -1.70557855116808      1.34619095045835      1.02563082427087
  C           1.95828907638177     -0.69592762301902      0.32670897850817
  H          -0.09640544026362     -1.38167098536853      0.21492974819163
  H           0.82028020330786      0.44800873826607      2.49018508271139
  H          -1.56749912855297      0.49366068766791      3.09099597324789
  H          -1.94954871152816     -0.67330440997849      1.74683446084803
  C          -0.73546518923095     -0.71524388122309     -2.58998206235362
  H           0.16441800089332     -1.31798402438297     -2.44073790733276
  H          -0.52732722053330      0.06236702882646     -3.33022412742256
  H          -1.54583611438590     -1.34816450861518     -2.94535207466611
  F           2.12792648354397     -1.09989424171347     -0.96069006716665
  F           2.59674094123965      0.48892461705503      0.43439223159026
  H           2.49119805232501     -1.42132742431595      0.96609248945575
