21
Coordinates from ORCA-job NEB_product E -40.944036577630
  C           2.55958940965813     -0.85218035479688      0.81095546307435
  C           2.28390370699476      0.44456877162842      1.54090650947736
  O           1.41829615347040     -1.21636283492401      0.09382577617511
  H           3.38895259910835     -0.62099654879489      0.11599303871956
  I           0.99714060660299      1.71755102029980      0.38738664583794
  C           3.02325187699844     -1.98158594496499      1.77876604915267
  C           2.36458590602267     -1.89980748420552      3.12989116689616
  C           1.13065759012828     -2.31255620654188      3.34878460453728
  O           2.69481663878425      0.80240717884249      2.58589555846668
  C           4.54468228187039     -1.99105232978827      1.89511261474497
  H           2.74180107829970     -2.92572969020917      1.29758191638474
  H           2.95136669902120     -1.44312715931178      3.91354417461659
  H           0.66996335227487     -2.22188285632940      4.31636418893562
  H           0.52954095068752     -2.74549764915526      2.56613994548238
  C           1.65721884363091     -1.87933595347781     -1.12767393415835
  H           2.17635371827526     -2.83178503064516     -0.97787363595180
  H           2.24563055312401     -1.25477277719126     -1.80776749865652
  H           0.67717312604302     -2.06358637503964     -1.56126357336677
  F           5.09742295354255     -2.35008924198044      0.70488947648219
  F           5.04540591130056     -0.76939234082071      2.17640634400624
  H           4.90994604416172     -2.69408619259363      2.65873516914359
