21
Coordinates from ORCA-job NEB_reactant E -40.929510543110
  C           1.50478399349131     -0.11040628292352      0.27183084054146
  C           1.40145607967314      0.54166942820341      1.42610595597138
  O           1.30079703052098     -1.45691111226293      0.12895833832735
  H           1.73945978146840      0.43934281428796     -0.63034596719246
  I           1.61704737833403      2.63781165794970      1.42953861928386
  C           3.28812235601448     -2.70316727110794      2.22137232013922
  C           2.86445673812311     -1.57789733349890      2.76954007297584
  C           1.41945423428123     -1.24568682602258      2.98053592851700
  O           1.13901858188105      0.11016857706506      2.68145318504270
  C           4.73175612382319     -3.02723127731266      1.98924192136119
  H           2.60593130218947     -3.46477187394599      1.87387074981567
  H           3.56681112926750     -0.81967858351804      3.09141824796065
  H           1.16693277286834     -1.34075100752648      4.04229783947278
  H           0.77984070705538     -1.91122015162599      2.39108646548168
  C           1.93033249303746     -2.02939155046065     -0.99711782634758
  H           3.01739558659988     -2.05464211384423     -0.87418071465868
  H           1.68350167917180     -1.47823542835948     -1.90973539473217
  H           1.55101792409491     -3.04652019423151     -1.07413197432889
  F           4.95787340131945     -3.23373434571846      0.66066698380785
  F           5.55456951898119     -2.01997770688470      2.35692793079675
  H           5.05914118780370     -3.93976941826208      2.51636647776440
