19
Coordinates from ORCA-job NEB_product E -39.946968030640
  C           1.63691377357981     -2.14442319156469      0.01334059891280
  C           1.38277858911433     -1.05002323090131      1.02430369806875
  C           1.23448910868787     -1.65611151580874     -1.38364101061564
  H           2.70735335375208     -2.38342489849390      0.00526148729540
  I           2.55144439582880     -1.29696341269410      2.83137146706638
  C           0.84616724589616     -3.38970084267427      0.48192920440886
  C          -0.63727111587937     -3.18480734850241      0.40606083444190
  C          -1.38841149514634     -2.97067020169685      1.46921598991457
  O           0.62049029817287     -0.15638040232672      0.93630094383022
  N           1.25648725701574     -4.54477048533226     -0.37835158292835
  H           1.16173222886258     -3.64670900115376      1.50030093544337
  H          -1.05739744166066     -3.22997694942777     -0.58850525112444
  H          -0.97691094622233     -2.93126277869315      2.46487470848000
  H          -2.44944197535647     -2.81854967527787      1.38520297631171
  F           2.21247872654438     -0.82046792079396     -1.85067658882747
  H           0.30336615834261     -1.08178245211457     -1.35562881802313
  H           1.15564144290618     -2.48536396076063     -2.09413845340397
  O           0.78502274791332     -4.60421384958839     -1.48539140882147
  O           2.04376764764845     -5.31509788219467      0.10107026957051
