17
Coordinates from ORCA-job NEB E -40.894090310340
  C           1.01662233862216      0.50598271481696      0.25576093813743
  C           0.13194806343476      0.48292679068343      1.34034478265154
  C           0.89012233755799      1.60603999017895     -0.74048662780631
  H           2.05477399647712      0.27727284562399      0.48602271602746
  F           0.64112012480258     -0.14853801502945      2.44837712920001
  C           0.34438612795848     -1.33969211388285     -0.46521775245808
  C          -1.02767267862279     -1.13112646627692     -0.58037805769439
  C          -1.79272056261079     -0.93419206866513      0.57227426072828
  O          -1.10108962390383      0.58267140769558      1.27305771343685
  Cl          1.26858433973910     -1.69767997202382     -1.88052019685326
  H           0.73487683227887     -1.85270065559466      0.40699984115864
  H          -1.43083169307007     -0.84150536297726     -1.53896821920042
  H          -1.57898966876215     -1.52105800935084      1.45572120835857
  H          -2.82577216300602     -0.64286860913729      0.45828545237946
  Br          1.50005688104415      3.28984747773782      0.16956901323124
  Br          2.06620475114683      1.39746529689407     -2.27138519397956
  Br         -0.89161940308641      1.96715474930742     -1.38945700731743
