17
Coordinates from ORCA-job NEB_reactant E -40.933562473670
  C           1.60215282669249      0.10536023250879      0.08635808245553
  C           0.96165727655246     -1.06074397337538      0.22540029826155
  C           1.96678845716282      0.57602713248951     -1.25902227157737
  H           1.85477124254957      0.69585844403429      0.94963385777116
  F           0.62045569236136     -1.51061871773500      1.43740995215283
  C           0.11522470861363     -4.82340928650201     -2.28738459274680
  C          -0.35197940960121     -3.64337561780521     -1.91316579079587
  C          -0.06648551108940     -3.04964837744842     -0.57168834059809
  O           0.63346262343789     -1.82193779443203     -0.79899984503746
  Cl         -0.21407972888282     -5.50736902187163     -3.81886183105654
  H           0.72046561646181     -5.45075700458446     -1.64941457476534
  H          -0.94113255679868     -3.03329327178237     -2.58083770490277
  H           0.55118159572949     -3.71835564899631      0.03743691235644
  H          -1.00147055380557     -2.83563144505136     -0.03846943990801
  Br          2.85473430944066      2.29553830217878     -1.18739826646601
  Br          3.17214877908810     -0.69798782455032     -2.17525557773876
  Br          0.38470463208740      0.75774387292314     -2.42264086740448
