16
Coordinates from ORCA-job NEB E -30.620436323880
  C           0.77821886919048     -0.58871863363826     -0.13317141730437
  C           0.64923304973408     -1.92077953083769     -0.67207067229650
  I          -2.79130210396584     -2.09362034885069      1.21697271532671
  H           1.56395108198013     -0.39527541425890      0.57619149535172
  O           1.66778635061306     -2.72000756887757     -0.31495277590004
  C          -0.18309207453092      0.46280536343414     -0.50003280027877
  C          -0.78507037546094      1.09745852878730      0.74669628158199
  C          -0.50871863964817      2.29269587649676      1.22207444416690
  O          -0.27397283588665     -2.30387872979410     -1.35802898523381
  C           0.53907356122981      1.46290099571009     -1.26711035635963
  H          -0.96757573558527      0.02478415489117     -1.13180225097517
  H          -1.47339086945012      0.41685602603377      1.23475720617080
  H           0.18251378160318      2.96984280559230      0.74221748840520
  H          -0.99975149362707      2.65893474831482      2.10853216058673
  H           1.49753962613192     -3.62569284990231     -0.61493691659218
  N           1.10455780767233      2.26169457689918     -1.85533561664958
