16
Coordinates from ORCA-job NEB_product E -30.704752973230
  C           1.98570659592096      1.68113211646008     -0.46291735417242
  C           1.97869476912365      1.65307421982525     -1.97982147780315
  I           3.62659921465979      0.54318987243842      0.34584680775620
  H           1.07847574155744      1.17706481678392     -0.11761348814674
  O           2.73569477728675      0.70006573569957     -2.49872311576260
  C           1.95907015759413      3.13828645091059      0.02905215341171
  C           1.76989203615405      3.24260982797234      1.51869151684651
  C           0.71137216172522      3.79532026670856      2.07766336311249
  O           1.31728930191839      2.41514336527177     -2.63156752625957
  C           3.18376427268264      3.80903508477245     -0.35672284353055
  H           1.12834548397506      3.63533242909947     -0.49163271658065
  H           2.57123141103956      2.83238487391501      2.11834046398363
  H          -0.09113242243728      4.21758617477908      1.49427946354123
  H           0.60576351576377      3.85119910067567      3.14697639212185
  H           2.70593819777500      0.70417262492425     -3.46905120297619
  N           4.16129478526086      4.31960303976358     -0.65260043554176
