16
Coordinates from ORCA-job NEB_reactant E -30.676835466090
  C           2.01943097686268      0.42168310891780      0.20954328382590
  C           1.35910638262187      0.90029838523404     -0.84332903299218
  I           2.11438342728490      1.11965967933179      2.18361918643712
  H           2.54288996612874     -0.50615573532326      0.07159987911141
  O           1.40535746660440      0.16418775451255     -1.98073910398413
  C           2.60777943171121      4.46684480682794      0.72947926708346
  C           2.08036887590213      3.76285166397318     -0.26961191329529
  C           0.71197733084269      3.16077028971212     -0.23684611316592
  O           0.60444122188380      2.00891436979064     -1.05344939310791
  C           3.88622813813925      5.05082171785630      0.63786789990886
  H           2.08140758193213      4.62746077670901      1.66118351868407
  H           2.63464640882422      3.60950259603008     -1.18683995082468
  H          -0.00071255315975      3.86034987891592     -0.69219620705104
  H           0.38184897691746      2.95951870188996      0.78700011294012
  H           0.88658969785246      0.61874968194540     -2.65888641704906
  N           4.92225666965181      5.53524232367652      0.56190498347926
