18
Coordinates from ORCA-job NEB E -33.783599547780
  C          -0.24228211110853      0.96565645475431     -0.50376745930057
  C          -0.98987579377217      0.66230527495141      0.63398015349585
  C          -0.69085548691743      0.38124338238944     -1.81628559352865
  H           0.18273219103138      1.96018666771925     -0.59201654243908
  O          -0.92526836520761      1.46493389874932      1.72654285902791
  C           1.39980200590604     -0.24075972403854     -0.02661751241472
  C           1.00496964602198     -1.03816685405463      1.03501768432866
  C          -0.20463327683011     -1.74290321356843      0.90337457903857
  O          -1.44121878570992     -0.51061129468365      0.83397328660263
  Br          2.84436259557347      0.97205935666889      0.25922691910891
  H           1.42101130858197     -0.62692909422034     -1.03398834849185
  H           1.31029655715534     -0.74886899644186      2.03232143434998
  H          -0.55857148284171     -2.30512558573715      1.75505709908382
  H          -0.41842204504823     -2.21125455601481     -0.04922106990083
  F           0.32895957761096      0.35004131991247     -2.73516687627704
  H          -1.47660379417027      1.00733072650134     -2.25796332163744
  H          -1.06072598090285     -0.64148083529735     -1.70135986577544
  H          -0.48367675937231      2.30234307241035      1.53689257472929
