18
Coordinates from ORCA-job NEB_product E -33.848961086360
  C           2.77582846121380     -0.97816068547109      0.41321549001585
  C           1.50194160075730     -0.43466779479631      1.09056692239701
  C           2.71932700864982     -0.63771129612977     -1.08029184051934
  H           3.64992568924712     -0.47599704852794      0.84847388503885
  O           1.42698103338386      0.89177106390069      1.16798241904466
  C           2.86497416546678     -2.47912692153271      0.67019304249428
  C           2.96932249645374     -2.80023170491610      2.12051147914735
  C           2.21069481535691     -3.69514025812107      2.72487160883299
  O           0.63416314614918     -1.14196774461997      1.51052905130499
  Br          4.48334568046604     -3.21279536499490     -0.22471196714233
  H           2.02352472145780     -3.00048954579709      0.21126531035449
  H           3.74163491406877     -2.26568927200024      2.65821385389398
  H           2.31705932583448     -3.90621813743080      3.77405115883505
  H           1.44246796705238     -4.23580317405877      2.19858984242440
  F           2.78557524433727      0.72742002885109     -1.23800575035223
  H           1.78080242570727     -0.96997638873167     -1.53512071318822
  H           3.57308664919358     -1.05609762082362     -1.62113044898525
  H           2.11784465520388      1.35688186520027      0.67179665640345
