16
Coordinates from ORCA-job P E -25.462794834200
  C          -1.41069726870827      0.61078532684660     -2.22379756296450
  C          -0.35392197815286     -1.65809485663285     -0.63441133132069
  C          -1.29075526024574     -1.81615577094205     -1.79138569390252
  C          -1.76104173704520     -0.80667791273348     -2.50699092952601
  C          -0.85845967923296      0.80138235652222     -0.82071208939727
  C           0.21746778992865     -0.24625341785370     -0.55039369159013
  H          -1.56082067946549     -2.83169138711188     -2.04204870169070
  H          -2.40122350234310     -0.98793002064609     -3.35790206876118
  I          -3.16486424086490      1.89191837099564     -2.49144940062604
  H          -0.87502161749892     -1.89048673146319      0.29881507681685
  H          -0.70325327062487      0.97843052708177     -2.97039776431085
  H           0.47035409642651     -2.36867106931742     -0.73552289967082
  H          -1.64724441186903      0.66793864038968     -0.07830035219645
  H           0.69472003854061     -0.07199646421914      0.42272968291657
  H          -0.44124889415004      1.80404704565140     -0.70937738763899
  F           1.22913061530559     -0.10700463656752     -1.48521488613726
