17
Coordinates from ORCA-job NEB E -38.185121977630
  C           0.07730098856836     -0.19941200436910      1.46538956360265
  C          -1.01581181269290      0.64718242947674      1.43754582259674
  H           1.04998298191517      0.26381905703309      1.56110799786090
  H          -0.01810659941018     -1.15657893244251      1.95827313520955
  Br         -2.76770614498852     -0.17086575020993      1.70918750425634
  C           0.16291871840762     -0.56356559960333     -0.48196481111490
  C           0.15674979391984      0.70702609897563     -1.04125821219602
  C          -0.99012356935009      1.53147155648307     -0.79479457559171
  O          -1.01723707160673      1.74552939374564      0.77922107926142
  C           1.40914797445505     -1.39661856059835     -0.62847177919035
  H          -0.73460144853754     -1.17268895107386     -0.52494963723505
  H           1.10296743378272      1.19201872208917     -1.23257032947296
  H          -1.95849084167318      1.06849459878795     -0.98226204664197
  H          -0.93857484159628      2.54568483023831     -1.17250038917905
  F           2.52470021167581     -0.71805517245774     -0.32437993027447
  F           1.39267772384957     -2.48144611462803      0.15812521341815
  F           1.56420650328127     -1.84199560144676     -1.88569860530929
