17
Coordinates from ORCA-job NEB_reactant E -38.208105259250
  C           2.31147355634729     -1.22257571280911     -0.40102067625957
  C           1.22199932089334     -1.32547758885688     -1.14129443783013
  H           3.23099335874822     -0.81893679495921     -0.78426095236544
  H           2.31064217478112     -1.55792928632075      0.61787741521693
  Br         -0.38191088361323     -2.07907805578054     -0.45546359136485
  C           3.14539603995804     -2.49154001223637     -3.48250990729649
  C           3.14092311741492     -1.17168315870232     -3.56976573377488
  C           2.01603445257824     -0.29293888289718     -3.11885066720692
  O           0.99097321748697     -0.95900467406278     -2.41961187952095
  C           4.29164002461459     -3.33015921947227     -3.94948561149693
  H           2.32840174515654     -3.06398947630574     -3.07003623580476
  H           3.97884823669053     -0.64297368646813     -4.00330060351592
  H           1.52495666474563      0.13266191514393     -4.00144410196450
  H           2.41561242291693      0.53644361797156     -2.51863143335940
  F           5.29461825957115     -2.61327291722852     -4.47619376905659
  F           4.82324292704230     -4.04862506001045     -2.94449862874621
  F           3.91705536466740     -4.21462100700523     -4.88780918565338
