22
Coordinates from ORCA-job NEB_product E -46.356525584050
  C           1.12959748033406      0.44088964424879     -1.60923225930237
  C           1.84144395978397     -0.84821795942545     -1.98885494083218
  O           1.63160286113307      0.95459042811734     -0.41097236868943
  H           0.06073462036523      0.18302719015130     -1.51612771178558
  C           2.57676907808923     -1.54523962006498     -0.80608021420942
  C           1.26381747734541      1.44795824439812     -2.79500495741472
  C           0.48578680640334      2.70692460740600     -2.52274417039027
  C          -0.64151256534776      3.00892747172053     -3.13788030512792
  O           1.84357047674473     -1.33698667273775     -3.07921137172207
  C           2.66166056568030      1.77253531238909     -2.98894828101507
  H           0.89310187036965      0.94838469159802     -3.69752071310537
  H           0.91682062115408      3.35948844658621     -1.77635603873652
  H          -1.07153264851605      2.36889494322361     -3.89134820114027
  H          -1.17852033130396      3.91496766033224     -2.91737506329961
  C           0.67085961576412      1.27177866362999      0.57536238998638
  H          -0.05173095768855      2.00801617488865      0.20893839269922
  H           1.23456842766652      1.69322840248514      1.40409647808774
  H           0.14232654617856      0.37547885397095      0.91501129046071
  F           1.75290564594670     -1.69271788665319      0.24454931288694
  F           2.97929543487281     -2.76711268217552     -1.15517827767713
  F           3.64679770178099     -0.87069917457896     -0.39392141171209
  N           3.75823731324357      2.05128326048986     -3.13910157796097
