18
Coordinates from ORCA-job NEB_product E -34.911866103320
  C           1.34101275373552     -1.46851326945279     -0.33261901707187
  C           2.44392050987558     -1.62493424082538      0.69720605777761
  C           1.87067038577221     -0.71738685736122     -1.55987868215504
  H           0.54731983369839     -0.85265737938098      0.10975770061302
  C           1.98987043699054     -2.30627216374660      1.90114278789864
  C           0.74392183879980     -2.85175927376108     -0.68617641421264
  C          -0.46334972958952     -2.71058181423140     -1.56420246023296
  C          -1.69320041010868     -2.95290351883701     -1.15392686513460
  O           3.57398093544084     -1.23645720843567      0.56926952158282
  H           1.50716279366312     -3.44191839068329     -1.19966357075267
  H           0.46940195978686     -3.36236944750806      0.23946537708229
  H          -0.27359019785339     -2.38111695756397     -2.57558303729738
  H          -1.90351374013139     -3.28208145246804     -0.14883771501169
  H          -2.54053621956783     -2.84269620902626     -1.80757706003481
  F           2.37934149042742     -1.56054168903625     -2.48419659876415
  F           0.87007782068229     -0.04048592762695     -2.17198225312408
  H           2.65796551164912      0.00731939599309     -1.29831637273773
  N           1.64424402672911     -2.83294359604816      2.85601860157527
