18
Coordinates from ORCA-job NEB_reactant E -34.903646196960
  C           1.67453985848238      0.06144321186513      0.03080867173151
  C           1.09241257412784     -1.12988275086918      0.27605056723669
  C           2.05123263645891      0.48965045218773     -1.35326304280915
  H           1.88680829431495      0.73552142112176      0.84139228700017
  C           0.76775786256075     -1.44289057897169      1.63108152414734
  C           0.18169130839735     -5.31592846525254     -1.69093768038511
  C          -0.01671442600114     -4.01603731698183     -1.59710989253668
  C           0.18211526825650     -3.22604141726397     -0.34078157910402
  O           0.81499255596587     -2.00355338545364     -0.69646579291041
  H           0.00963214712249     -5.84791297559595     -2.60981301940573
  H           0.51305853281529     -5.90381290060760     -0.85058796770514
  H          -0.34117902678070     -3.42747686478486     -2.44282218646830
  H           0.79536339814749     -3.78101282562045      0.38085722924448
  H          -0.79301858929350     -3.01342789336952      0.12498841306406
  F           2.96883201252356     -0.34809349246137     -1.90518946256135
  F           0.98249327764855      0.47018963527870     -2.19232937382516
  H           2.47420124319921      1.50544388003310     -1.37915067558017
  N           0.50158107205419     -1.69177773325381      2.71687198086696
