20
Coordinates from ORCA-job NEB_reactant E -33.669866903610
  C           1.60725967302353      0.39814355586878      0.21547641648101
  C           2.70324848386322      0.45723734051891      0.97377116587898
  N           0.41281231761335     -0.22014317896573      0.62669777851332
  H           1.62553308490967      0.73550165452519     -0.80947004533506
  O           3.90993270131134      0.96232876722889      0.54221858853272
  C           2.90261047850139      2.34992724123944      4.78693367481030
  C           3.13402187838295      1.95215437611358      3.54793999150433
  C           3.58628464073220      0.57440395087150      3.17342518728294
  O           2.70237584193466     -0.04180575884418      2.24577179418477
  C           2.45298037602721      3.72402516708950      5.16889521742872
  H           3.04206229692991      1.68594894451895      5.62894148684584
  H           2.98451238934059      2.63152158104861      2.71984233535468
  H           3.58784663883056     -0.08930282699394      4.04079108113220
  H           4.59582740578082      0.61999515589489      2.74617636645663
  H          -0.40812929604723      0.32377515360854      0.39040163512662
  H           0.44164776222784     -0.42020273979414      1.61897080235276
  H           3.83501773583179      1.19330360494379     -0.38781181961142
  F           2.26618189748467      4.53265623899879      4.07701555780061
  H           3.19952283746870      4.21820850565175      5.80412179539069
  H           1.49455085585285      3.68752326647685      5.70259098986934
