20
Coordinates from ORCA-job NEB_product E -53.954919781290
  C           2.17437502158345      0.17332327019582     -2.43010982734658
  C           0.78846911790486     -0.35959308928135     -2.73059541321124
  Cl          2.04929946511481      0.62889988693949     -0.69907573862538
  H           2.95181832895555     -0.58867580108396     -2.50895574347128
  C           0.67812330144175     -1.91156857234770     -2.66047256672255
  C           2.49886802407848      1.40417456369629     -3.28420072307490
  C           3.60166427563653      2.23100123984799     -2.68116084067439
  C           3.49583552846607      3.52864031368648     -2.47279699772914
  O          -0.18798025046054      0.31313927180763     -2.87824907577057
  C           2.88719877563082      0.93753766527289     -4.69195283548360
  H           1.59034375807203      2.01113159628043     -3.37242799822154
  H           4.50151630810195      1.69128177612005     -2.42734893383779
  H           2.60199628005069      4.07616350563696     -2.72128620003629
  H           4.30182253140839      4.09544742178710     -2.04154442441771
  F          -0.41166215479351     -2.35881200285663     -3.27310261917555
  F           1.73541936533918     -2.51942579320176     -3.21701880149168
  F           0.62899258591597     -2.31639610067753     -1.38471635239379
  Cl          1.63397288908109     -0.16773426166838     -5.34013339017321
  Cl          3.03179604239730      2.33163896930158     -5.77172128198592
  Cl          4.42923080607513      0.05612614054459     -4.68483023615690
