20
Coordinates from ORCA-job NEB_reactant E -53.958183454400
  C           2.50202191212021     -0.63835841103125     -1.57119918847007
  C           1.37176483010166     -0.01994613794331     -1.91542828072462
  Cl          4.03516345104855      0.07626427633564     -1.28993687902534
  H           2.50681775676775     -1.70937359073374     -1.44776651195636
  C           0.12282357798357     -0.85839997256511     -2.14653145546602
  C           2.85919108173292      1.36735635947821     -4.32453974705727
  C           3.04774885368453      2.12664295190495     -3.25617473431814
  C           2.04411642753528      2.27274131610631     -2.15359281909084
  O           1.04387804158153      1.27018615754555     -2.14552901176914
  C           3.84770197308851      1.14603961204188     -5.40914498316176
  H           1.94186578650676      0.81173120044863     -4.46666913146322
  H           3.95745677552438      2.69237333376629     -3.12279122687105
  H           1.48262765278109      3.20394427549978     -2.28801589791881
  H           2.55382508667391      2.31586931561673     -1.18533646267203
  F          -0.91826912136057     -0.40547551730183     -1.44551281444917
  F          -0.23614091331760     -0.83337663506796     -3.43785497310244
  F           0.28286539084872     -2.14403216405532     -1.81859172691460
  Cl          4.32956816662554     -0.58152863956064     -5.39033214316931
  Cl          3.09655657197232      1.49679508802499     -6.99039055027962
  Cl          5.30981669810093      2.12694718149019     -5.25576146212018
