20
Coordinates from ORCA-job NEB E -33.358472393940
  C          -0.73431117420979     -0.88301071234592      1.29733084874065
  C          -1.94797755807716     -0.20674939190294      1.30255961870685
  Cl          0.51359645628977     -0.29388054313321      2.34023362009656
  H          -0.74949868927953     -1.96415202893441      1.23312921778378
  F          -2.98439672636683     -0.95407936183505      0.76445093313362
  C          -0.14075020709015     -0.27800865741633     -0.57198793126039
  C          -0.25294900118563      1.09698743517716     -0.41977406747439
  C          -1.52912842560119      1.67086602477345     -0.25007466182444
  O          -2.08343954127251      1.03660004398945      1.25775789649335
  C           1.17480809772543     -0.97300092994085     -0.82633859572711
  H          -0.97528015544086     -0.78239253112587     -1.05196036358391
  H           0.60247280748529      1.65874110151277     -0.07831634703477
  H          -2.34034053345390      1.29585834651494     -0.86395917414256
  H          -1.58856935315177      2.73034324533378     -0.04630195494205
  C           2.42223855709276     -0.14674933514272     -0.53832083335226
  H           1.21789207784530     -1.90051898803000     -0.25226526541214
  H           1.17848812584681     -1.25948680411669     -1.88318408027835
  H           2.45918385974905      0.73151316656014     -1.17793558228276
  H           3.30677244417047     -0.74785236916957     -0.73515132052898
  H           2.45118893892446      0.16897228923185      0.50010804288929
