20
Coordinates from ORCA-job NEB_product E -33.404383842290
  C           3.08546675747491     -0.65361543896482     -1.68617899978683
  C           1.65478369263043     -0.44604559214229     -1.28674568675185
  Cl          4.09936460855466      0.09198997712636     -0.42395905767088
  H           3.30577144353795     -1.72566218689627     -1.69683130912734
  F           0.85792450193009     -1.30164890302238     -2.00131916691505
  C           3.29566048542009     -0.06566279841048     -3.10182279404959
  C           3.26622630940765      1.43504890516504     -3.07640861540731
  C           2.42400802416349      2.15932972022408     -3.78769535629419
  O           1.16326481657791      0.30330395780739     -0.52777874147968
  C           4.55831674030722     -0.61466118688371     -3.79233533517525
  H           2.44269430449894     -0.41753809870461     -3.69678598197574
  H           3.99033332979131      1.90865846414789     -2.43085025847554
  H           1.68790939734260      1.70888751286219     -4.43420818738626
  H           2.43486966136773      3.23481485072118     -3.75614492103653
  C           5.88752256677741     -0.20285875591352     -3.17310759855303
  H           4.49251606068016     -1.70527635152885     -3.81235713740179
  H           4.52855071560142     -0.26427626944824     -4.82672678977999
  H           5.99755991116124      0.87758275868721     -3.17182870154653
  H           6.70142357795381     -0.62473446511642     -3.75854332081905
  H           5.97903309482099     -0.56413609970975     -2.15387204036756
