20
Coordinates from ORCA-job NEB_reactant E -33.385143273720
  C           1.99974255332193     -0.45723195148341     -0.63652687000893
  C           1.19129355462803     -0.24344133536448     -1.67139483564984
  Cl          3.36110138620817      0.49298162202133     -0.18323490687271
  H           1.81761681481924     -1.30580909172725      0.00042597963884
  F           0.18337251652294     -1.12833550130059     -1.82073435521307
  C           3.62522173691148     -0.15640295517432     -3.70847351851806
  C           3.44770165156872      1.05928323253095     -3.22013503230361
  C           2.11714137353853      1.62926035172185     -2.81700717782562
  O           1.09324588538536      0.66007114357373     -2.64128352209979
  C           4.92765962740472     -0.77336118018307     -4.10949881235577
  H           2.76980442909267     -0.80769573433973     -3.84209306457848
  H           4.27065398391805      1.74256831890150     -3.08028384989374
  H           1.72850182969810      2.27593790810806     -3.61187145797247
  H           2.22416339281655      2.23237957878085     -1.90827284103729
  C           6.15107578831085      0.10846222597839     -3.90144285192599
  H           5.04841805608139     -1.70161944636104     -3.54182277189875
  H           4.85656013374726     -1.05820528295961     -5.16411594576236
  H           6.07685727849090      1.01706128302820     -4.49402940785191
  H           7.04847508526958     -0.42527293089321     -4.20540403532541
  H           6.25309292226554      0.38016974514183     -2.85360072254506
