19
Coordinates from ORCA-job NEB_reactant E -47.821265178420
  C           1.48780880758605     -0.12114903068156     -0.03656630026237
  C           1.46691554874893     -1.03759881055753     -0.99819025600083
  I           1.55228928928062      1.91533697226766     -0.47652083333619
  H           1.45995770009023     -0.35801114720657      1.01052374587679
  C           1.40934649199005     -2.51886845676208     -0.70271531701431
  C           2.47198014017039     -2.44730780478388     -4.33664355812758
  C           3.18184551029224     -1.41581974560382     -3.89887608353374
  C           2.70378160261910     -0.39099064760803     -2.92922525475822
  O           1.45734093921079     -0.73133636393205     -2.32446744642607
  N           3.02299415084265     -3.37407793731673     -5.28180918747557
  H           1.46227932956028     -2.67565043772167     -4.03399100147469
  H           4.18663080872107     -1.26968002712030     -4.27679453616848
  H           2.54944765482287      0.55080690506149     -3.47372596043090
  H           3.47286662134293     -0.21470965342422     -2.16873107299143
  Cl          2.99680130619720     -3.24408898998266     -1.12815177905082
  Cl          1.07753846733590     -2.88484679413609      0.99396237778463
  Cl          0.14762708640132     -3.27475752226830     -1.70055367426420
  O           4.15515683059051     -3.19068657083429     -5.67366716792480
  O           2.30609171419687     -4.28826393738939     -5.62345669442120
