19
Coordinates from ORCA-job NEB_product E -47.830800030970
  C           2.18980155697551     -1.53652021045065     -1.62254295599079
  C           1.04559265522085     -2.48692762155816     -1.39084328382861
  I           1.48403990738238      0.32290928835739     -0.77815253597803
  H           3.08480028339604     -1.81864241258824     -1.06943106298993
  C           1.07547541286311     -3.27478338322736     -0.07667253291916
  C           2.46474565447113     -1.34060288905079     -3.10541267159472
  C           3.56817832888229     -0.35382238441831     -3.36222134635882
  C           3.48305797867266      0.60936602631006     -4.26007861608227
  O           0.17438864502375     -2.66919427838291     -2.19106288361959
  N           2.92297311032123     -2.64774494242597     -3.68711524599820
  H           1.55580155283467     -1.06190836262425     -3.64832897929484
  H           4.46006887974386     -0.49839220345210     -2.76759928247559
  H           2.60138893630640      0.75244120779633     -4.86192244499443
  H           4.29429927587069      1.29634932479265     -4.42296934384527
  Cl          2.01947086039611     -4.73366034234969     -0.52981360969345
  Cl          1.88462755297912     -2.45629598418061      1.25921871094274
  Cl         -0.56009039575207     -3.73214805507204      0.40518593196608
  O           3.44180426642064     -3.43013592578455     -2.93024179323750
  O           2.76697553799160     -2.79278685169077     -4.86729605400759
