21
Coordinates from ORCA-job NEB E -52.419108956270
  C          -0.45122313878899      1.67694696310713      0.25846485505049
  C          -0.84268730142364      0.71086175052996      1.10908723777357
  C          -0.12169362499767      1.53381988817842     -1.09811799985683
  H          -0.35084079487189      2.68694073340337      0.62987631991705
  C          -1.15136189374536      1.07469260960636      2.54734355668106
  C           1.51941030611505     -0.93865130635448     -0.32204892056701
  C           0.36345844930072     -1.14306170550583     -1.02046756534716
  C          -0.98548606638601     -1.12653660905101     -0.41778855032294
  O          -1.06125005094259     -0.58984539662002      0.88878133878597
  C           2.78675926192965     -0.89009231623147     -0.88288124542716
  H           1.47306017485330     -0.75539415766237      0.74681838764798
  H           0.38413802340809     -1.35257831520889     -2.07995391308383
  H          -1.35761779604327     -2.15268517393585     -0.31379790167265
  H          -1.67669001316842     -0.62305841459749     -1.11906266867144
  N           0.12919682822303      1.49090559720670     -2.22038704661335
  Cl          0.09992134483424      2.14625984873555      3.21876213982335
  Cl         -2.71791897731923      1.93606467161873      2.58490264095847
  Cl         -1.26649493591464     -0.36370504289007      3.56736158549875
  Br         -2.17738376193724     -1.56852069880446     -3.57056341604909
  Br          3.12179563752580     -1.16259913156062     -2.69416207170353
  Br          4.28290832934907     -0.58976379396369      0.18783323717839
