21
Coordinates from ORCA-job NEB_product E -52.460108555920
  C           2.84925329277281     -1.72719391685983     -0.11069490585382
  C           1.59082413759891     -1.80618604166764      0.74512943506556
  C           2.78302245868843     -0.46279456765812     -0.82132441824525
  H           3.72702824742945     -1.70134091386554      0.54648385890800
  C           1.73545025652223     -1.14638354930587      2.12321742336929
  C           2.90250173745101     -2.93488169091085     -1.08105598336483
  C           2.17479566477940     -2.65073688611034     -2.36845935138540
  C           1.06061214603779     -3.26530272359135     -2.71557824197710
  O           0.59203660399800     -2.36793915468988      0.41839505932343
  C           4.34012421185474     -3.35340577733942     -1.36331583204798
  H           2.41106299846347     -3.78130201103043     -0.58287934942908
  H           2.62017918773600     -1.89671055883024     -3.00363336543380
  H           0.59811493098512     -4.00906712756291     -2.08840301316656
  H           0.56214743097148     -3.03489382574984     -3.64004733643216
  N           2.72083345302999      0.51680945741946     -1.40268026402949
  Cl          2.60322626684132      0.39888095218752      2.05141265560911
  Cl          0.16201791741482     -0.92703749936028      2.88491974324335
  Cl          2.70262593405007     -2.33788557863397      3.05494309689683
  Br          4.35201927455436     -4.86309787605853     -2.59845983019320
  Br          5.39910797591001     -1.90992245065478     -2.14071580500259
  Br          5.23011587291057     -3.93820825972718      0.29204642414570
