20
Coordinates from ORCA-job NEB E -47.810945264390
  C           0.82145553092765     -0.28436710151181      0.68006594472182
  C          -0.36037897936971      0.18769531656599      1.41174597560435
  Br          2.33992541380224      0.90322028153457      1.03426261744125
  H           1.14202550602186     -1.29427357075238      0.93463690240471
  C          -1.23830209292825     -0.72590400659461      2.09493458897179
  C           0.41502714866747     -0.23720496371932     -0.88905296592624
  C          -0.01542109903711      1.12181171185516     -1.18251949679176
  C          -1.09929411199034      1.62967072558674     -0.42524921172568
  O          -0.81733932528357      1.36157458137280      1.13016205783021
  C           1.54085816881909     -0.75047031680539     -1.78767637952056
  H          -0.40263998724454     -0.96795818079575     -0.94868986714596
  H           0.69075399254883      1.79565718298703     -1.64294541092898
  H          -2.03301918126922      1.06804960077771     -0.49893694385584
  H          -1.26215888799420      2.70050174178268     -0.47676334025477
  Br         -0.44704094879440     -2.20074733833109      2.99199183926903
  Br         -2.55473119490885      0.14436995721061      3.15563804582843
  Br         -2.50412937724826     -1.71254492230333      0.40927113852760
  F           2.57003529087860      0.11309551865825     -1.87907446697716
  F           2.04075767095857     -1.90905591365483     -1.30306598083260
  H           1.17361646344414     -0.94312030386299     -2.80873504663967
