20
Coordinates from ORCA-job NEB_product E -47.850016862850
  C           2.12508463405580     -1.23739482025743     -2.30207825422658
  C           0.86202174578652     -2.03483651714478     -2.08988993627405
  Br          1.87503328271668      0.26955171838883     -1.06396956153899
  H           3.03179396124797     -1.75586205625231     -1.98362064953948
  C           0.96094378095520     -3.20550277243593     -1.12464156026852
  C           2.24341415673150     -0.70676302322071     -3.73364314892196
  C           3.32117723018765      0.33696322232972     -3.83977625505827
  C           3.09618285367941      1.57912848479779     -4.22029613878971
  O          -0.17594875637502     -1.78321086027242     -2.62733382787463
  C           2.57609724207556     -1.86370901298226     -4.68320323558445
  H           1.27419118453155     -0.29584600828915     -4.03807285428621
  H           4.31328148925274     -0.00114741503824     -3.57365186974908
  H           2.10994715117535      1.92685158636054     -4.47997558386544
  H           3.89026692474756      2.30204611186278     -4.27682235826614
  Br          1.87810019620155     -2.77520712442769      0.52673580932212
  Br         -0.81026720094025     -3.86643218526996     -0.72857447073603
  Br          1.98476836637703     -4.58655819537617     -2.06617861406215
  F           3.70568423313709     -2.49689594800428     -4.28921603230905
  F           1.60004529255413     -2.80008723221470     -4.68254362620005
  H           2.71868223190201     -1.52208795255362     -5.71864783177131
