20
Coordinates from ORCA-job NEB_reactant E -47.839552436560
  C           1.83292327066884     -0.12081043114235     -0.07193649592960
  C           1.58605774200065     -1.01328625079863     -1.03055549225571
  Br          2.62722819056024      1.58855696901099     -0.23259624166290
  H           1.56507412516523     -0.32787607013761      0.95025970944242
  C           0.95921544624168     -2.34387392707653     -0.70833720061463
  C           2.29888730258179     -1.51067305695750     -5.00517126792689
  C           2.78104382811311     -0.41748924656650     -4.44048759099194
  C           2.58617052782831     -0.02950547349104     -3.00978144028979
  O           1.82309140167226     -1.02784129291294     -2.35564428005366
  C           2.51809749597690     -1.85818666375289     -6.44572239518654
  H           1.72387134909265     -2.24337343247692     -4.46128145260086
  H           3.36075734119224      0.29370462341976     -5.01169403150400
  H           2.06841921422180      0.93718757642087     -2.96995297297124
  H           3.56761461983944      0.07767189063786     -2.53085184553074
  Br          0.14405316971778     -2.49759306604480      1.03028334524859
  Br         -0.40536791373991     -2.73262164195606     -2.04340038431327
  Br          2.36478376882337     -3.71688518974821     -0.86378157068332
  F           3.26855869620259     -0.93392401011386     -7.09006901797704
  F           3.18806914001902     -3.03514925142152     -6.55578458216086
  H           1.57145128382199     -1.96953205489208     -7.00209479203802
