20
Coordinates from ORCA-job NEB_reactant E -33.551167312280
  C           1.56966607349177     -0.10641613336019      0.03367954648317
  C           1.42679489272631     -1.35605267534683      0.47564883670292
  C           1.88830597171391      0.35554624729238     -1.35178700910430
  H           1.42338964567012      0.68647337891519      0.75289782632723
  C           1.00751059712363     -1.60615414001091      1.91208663525856
  C           3.62603530095122     -4.90059886505133     -1.74952207039808
  C           3.31558456636724     -4.01283065503365     -0.82514513644929
  C           2.64817203911849     -2.69926284696773     -1.10849416559573
  O           1.57856655408240     -2.53306247935068     -0.18598797353135
  H           4.11650975405549     -5.82626396328886     -1.50414180609452
  H           3.41174704529644     -4.73408799771377     -2.79272941001818
  H           3.52270617548965     -4.19220862989366      0.22042320983931
  H           2.25749801413000     -2.68464307396361     -2.13300579528930
  H           3.37636634996666     -1.88808565538496     -0.98758450880037
  H           1.71917746965367     -0.42131308867631     -2.08987204964123
  H           2.92352802650675      0.69273658991523     -1.42053589980132
  H           1.25266324884617      1.20553210491178     -1.59414032236348
  F          -0.16924622761006     -2.27284774634455      1.97770246911130
  F           1.91910623679854     -2.38694657530155      2.54700113384955
  H           0.89901826562159     -0.67771379534599      2.49290648951509
