18
Coordinates from ORCA-job NEB E -32.857312743950
  C           0.22123178869558      0.94036547277240      0.19929378399730
  C           0.29227181707192      0.48952042956158      1.51844083878972
  O           1.28953335039813      0.73027520203245     -0.61036124560997
  H          -0.35882186616477      1.83614190512614     -0.00759342108080
  I          -1.26616037512393      1.35582619355639      2.78227273975955
  C          -1.03530469570072     -0.62160993934808     -0.46797690482583
  C          -1.13856261340368     -1.54864858535785      0.55786120494829
  C           0.04145813840912     -2.05575637511230      1.10164647013843
  O           0.78438996533589     -0.58786119803980      1.88561369262176
  Br         -2.61441300136915      0.22703885333114     -1.11155522403280
  H          -0.32003801136927     -0.79276224133710     -1.26105744658168
  H          -2.03608671883773     -1.55470521730043      1.16300073856689
  H           0.88646658253213     -2.22405333925146      0.44867291301074
  H          -0.01643740047084     -2.71282548676019      1.95554096437211
  C           1.30289449659203      1.48785980717677     -1.80439229997603
  H           2.20797927101758      1.19955348498086     -2.33452988851373
  H           1.33068667276163      2.55961028395974     -1.58792463017240
  H           0.42891259962611      1.27203075000974     -2.42695228541155
