18
Coordinates from ORCA-job NEB_reactant E -32.890610417920
  C           1.25700227866884     -0.08173073540954     -0.16728634375626
  C           1.18399336809265     -1.03353669340008      0.76016769326394
  O           1.52720477842351     -0.37426358313276     -1.46225009021627
  H           1.10662070248890      0.95732309974521      0.09527815990924
  I           0.64414846034806     -0.45137347802834      2.74860504637920
  C          -0.77360879558628     -3.74376189087484     -1.50499375244756
  C          -0.64161699389667     -2.96017453927620     -0.45083593626883
  C           0.34900810925578     -3.22833575909653      0.64011449125085
  O           1.45605225777379     -2.33422220842820      0.57097846209113
  Br         -1.98386700807098     -3.37134868791741     -2.90231944932485
  H          -0.21912796002030     -4.65703128598813     -1.65168472442821
  H          -1.21739069661041     -2.04905352688755     -0.36192045285777
  H           0.78574195725888     -4.22418212997037      0.54750817224342
  H          -0.13723660648531     -3.12961766333651      1.62253700790551
  C           1.67404658388038      0.73708979157352     -2.31757564371524
  H           1.83702372520074      0.33109377526188     -3.31377531480219
  H           2.53382480105931      1.34925897456099     -2.02812668266458
  H           0.77268103821909      1.35816654060487     -2.32052064256152
