17
Coordinates from ORCA-job NEB_product E -26.272153653970
  C           1.30954841364967     -2.08298968709994     -0.88426475728087
  C           1.32949593961650     -1.19476078120728      0.32876092672173
  O           0.65404156225055     -1.45443647365378     -1.94802174306831
  H           2.34336153457796     -2.31042621327817     -1.18396546801589
  H           1.87307505340489     -1.60071642178312      1.19746470458945
  C           0.63808473287389     -3.43893745856093     -0.51952349395127
  C          -0.81310700636014     -3.21787107242659     -0.18751522353519
  C          -1.35949832479551     -3.50830634866373      0.97775694900166
  O           0.77518554820941     -0.12923095324266      0.35547654384008
  N           0.84670720006839     -4.33481453963775     -1.64633721346063
  H           1.16017698335623     -3.86428108506468      0.34662142776792
  H          -1.40741402602975     -2.81887904257963     -0.99912373163532
  H          -0.77811649097047     -3.91145122213990      1.79135325112731
  H          -2.40747740422892     -3.35469548980203      1.17040037080996
  H           0.27268888642974     -0.63263651246379     -1.59608120162284
  H           0.52189646993063     -3.88223676219269     -2.49543287938829
  H           0.31425092801694     -5.18872993620334     -1.51786846189950
