19
Coordinates from ORCA-job NEB E -44.848142512040
  C           0.80844815251849     -0.18099672434205      0.10594052968446
  C          -0.33814328563771     -0.86719206263150     -0.56479146565529
  C           1.13443104074450     -0.89266306418465      1.44751007718738
  H           1.70890521886430     -0.35790153217572     -0.50141711500320
  N          -0.19754947381813     -2.19837187853025     -0.93368357537173
  C           0.59804896081169      1.33580964199692      0.21235342870199
  C          -0.48489294740576      1.84096861385373     -0.61263588332562
  C          -1.66782424555589      1.03546486010587     -0.90960191808098
  O          -1.51582680211621     -0.34431381829193     -0.87951538363860
  Cl          0.15342408341774      1.88437330779996      1.94592804539583
  H           1.54071445295590      1.85777968642828      0.04671957892252
  H          -0.60301725844285      2.90850661271006     -0.68361467917015
  H          -2.05834229164847      1.26178244667439     -1.91204778374201
  H          -2.48411037333867      1.29272990538929     -0.21388290355149
  F           2.12235804714044     -0.24038537892711      2.09445753790887
  F           0.06577673774892     -0.92398278402901      2.27017086189895
  H           1.46156352047483     -1.92702973525310      1.26872929336549
  O          -1.14374954642065     -2.75936075472795     -1.47075491821586
  O           0.89978600970754     -2.72521734186522     -0.70986372731054
