19
Coordinates from ORCA-job NEB_reactant E -44.886543893720
  C           1.95163479886537      0.18172964858642     -0.00446400443057
  C           1.60324706518302      0.58608863170320     -1.23187628521385
  C           1.49820354491238      0.70720542502322      1.32125490148400
  H           2.62916876927035     -0.65845544182851      0.03864458910260
  N           2.18917611400926     -0.20633750165357     -2.36260066837768
  C           1.78411698092409      4.66844610312109     -1.89945348316689
  C           1.66073515776913      3.66571080165202     -1.04447321281583
  C           0.48726321305987      2.73239155841195     -1.07741966698805
  O           0.82691757123770      1.51534635922618     -1.75252930474036
  Cl          3.12390390230022      5.73173307351381     -1.89608071920781
  H           1.04465420292177      4.89745416895914     -2.65245997634347
  H           2.42655385483168      3.46550586984060     -0.31038251658198
  H          -0.31856812573619      3.14497816125048     -1.68707183987300
  H           0.11212922110754      2.53608765193302     -0.07206397866146
  F           1.96631113132823      1.96154027815281      1.56775468895075
  F           0.14390715596182      0.80415800333991      1.39769595779640
  H           1.82967844455878      0.06449985292493      2.14888015542444
  O           2.01233559216936      0.23096737713004     -3.46567124935518
  O           2.79073140532562     -1.21245002128675     -2.08028338700207
