19
Coordinates from ORCA-job NEB_product E -44.885448623780
  C           2.43567122972057      1.34632482773551     -0.27870753407401
  C           1.48767504061617      0.41947161757164     -0.97921290409196
  C           2.36348160466371      1.09345776941522      1.23992666956313
  H           3.46298512926258      1.12586459248409     -0.59141752329703
  N           1.65579004783089      0.43021397072491     -2.51808728336932
  C           2.09889827924107      2.79762957324351     -0.73436419567526
  C           0.62366706615125      3.04697636126931     -0.77283962950803
  C          -0.01336728793740      3.38084867444288     -1.88087227429743
  O           0.65158086167739     -0.28733672682416     -0.53149189052366
  Cl          2.88799491633616      3.98742860782056      0.35560476562246
  H           2.54194390135986      2.95668195384883     -1.72135472469397
  H           0.10229436547951      2.95264806493242      0.16788705528000
  H           0.49806864048790      3.49263909084550     -2.82358339733171
  H          -1.07446100799093      3.55557645462480     -1.88821877370841
  F           3.51947469454685      1.45600569630263      1.83126585080724
  F           1.37938702647217      1.78780639242174      1.83796469871097
  H           2.19650362746741      0.02531384883563      1.45823007420227
  O           0.78351366446002     -0.11059947501643     -3.13470866854376
  O           2.64219820015483      0.97144870532140     -2.95482031507152
