24
Coordinates from ORCA-job NEB E -49.210889954070
  C           0.32575199413390      0.47093522572511     -0.66347382453528
  C          -1.06897397758686      0.65793629501197     -0.62928043256356
  C           0.91386439292883     -0.23276507017435     -1.87191326132926
  H           0.97069698592999      1.29490752975156     -0.37790312263166
  O          -1.65587151319404      1.66454587530005      0.07640664790384
  C           0.39422024301349     -0.76682488069633      0.88359428681806
  C          -0.47837238006635     -1.79835620590837      0.53046160958462
  C          -1.83862870185004     -1.45528655359700      0.32308173818476
  O          -1.84335968493235     -0.32458216987170     -0.90227581165996
  C           1.84635068163948     -1.08074379452813      1.15280100487699
  H           0.03603157125356     -0.03120517774458      1.59968652761429
  H          -0.07694305962131     -2.66212516478659      0.02453232257802
  H          -2.32222248765378     -0.85641190433618      1.08982104130710
  H          -2.47970936501927     -2.22375548536577     -0.08673604591500
  F           2.26434583442678     -0.16671844819603     -1.83963006174988
  F           0.59287059095136     -1.53438168196693     -1.99237010726963
  H           0.59307185198604      0.26337140634598     -2.80614292616927
  C          -0.91119711955118      2.81445522213217      0.41363891098841
  H          -0.40879389847051      3.23472838748920     -0.46162420482688
  H          -0.17224385584954      2.60488028162088      1.19206416468152
  H          -1.63721507871120      3.53131261196256      0.79339315445766
  F           2.39462862922782     -1.90508196696359      0.24339534553335
  F           2.59303979481627      0.05531710361912      1.16454117920808
  H           1.96865855219890     -1.55415143482307      2.14393186491365
