24
Coordinates from ORCA-job NEB_reactant E -49.247677995340
  C           1.54042347764842     -0.16470206611276     -0.00097433879515
  C           1.73858938149607      0.23534822983389      1.27098344623431
  C           1.86783903907647     -1.43841212378217     -0.68214182652909
  H           1.05563092774978      0.56922264706285     -0.62149625745113
  O           1.30118400206012      1.47771263100531      1.56238085641144
  C           3.28977488396767     -3.19652972083900      4.18784384010337
  C           3.35499602374306     -1.99618475464013      3.63791249543597
  C           2.84275259273241     -1.67190710281429      2.27247273818530
  O           2.29323156088079     -0.36279194369553      2.33220642070849
  C           3.83924263902241     -3.51806629886696      5.54413443911953
  H           2.86060808376718     -4.04560054495649      3.67681608440856
  H           3.79724320904790     -1.16646966400464      4.17149238924817
  H           2.08854788483143     -2.39865490356494      1.96025802402836
  H           3.68101359032485     -1.69204059473021      1.56440200315329
  F           3.20146694087621     -1.75063745473232     -0.66234626414535
  F           1.25572389438593     -2.53343500973333     -0.12739931681823
  H           1.56597528229050     -1.41274891511356     -1.73803918733140
  C           1.49587483980634      1.96499920647844      2.87902620940567
  H           1.07304243601258      2.96714546538059      2.87617695193626
  H           2.55747122668251      2.00915769680067      3.13173149357831
  H           0.97790429175684      1.34301528247688      3.61233585827789
  F           4.79887508907522     -4.47806533901663      5.45865442239953
  F           4.42640127934793     -2.44865949652085      6.13000962266721
  H           3.06688742341739     -3.89589522591482      6.23675989576867
