22
Coordinates from ORCA-job NEB_product E -51.902736183820
  C           2.81900163556073      1.15547729717057     -0.52172258680468
  C           1.35224955709109      1.21688296871168     -0.83655859416311
  C           3.01242895580847      0.69035856720589      0.92419718392081
  H           3.28448555224863      0.39845871170526     -1.16508368479259
  N           1.06190613222150      0.86507665491938     -2.32920466297055
  C           3.40112098631051      2.54328107176790     -0.96727858079030
  C           2.66099748636048      3.71749494644920     -0.38209839780325
  C           1.66164204765656      4.32506618438575     -0.99306517437559
  O           0.42576121839072      1.54120989643249     -0.18345569770310
  C           4.90597695200143      2.68493122077076     -0.72057254256174
  H           3.27578901332712      2.55258441452451     -2.05663851560424
  H           3.01017488538785      4.06135284638122      0.57893855988014
  H           1.29699226342321      4.01337910483147     -1.95947728473940
  H           1.16160523892791      5.16753161426723     -0.55017077480097
  Cl          2.50805445134053      1.87179011056592      2.12819434826540
  Cl          1.99906221068843     -0.79084829359273      1.13157423956710
  Cl          4.68875091877960      0.19567179471948      1.22733585874041
  O           2.00576330274241      0.56086870759771     -3.01796012375785
  O          -0.08589978262392      0.94932843723903     -2.65747815820365
  F           5.18491652297643      2.97225125876710      0.58636144912447
  H           5.28554337009149      3.52880590718286     -1.30678635036019
  H           5.45157708128882      1.77244657799731     -0.97765051006715
