18
Coordinates from ORCA-job NEB_reactant E -25.637425064270
  C           1.55369236863055     -0.02723407131730     -0.13022899293203
  C           1.71444300160145     -0.58246804970738      1.07467600743146
  N           1.23711190314707     -0.75683977264137     -1.28867359668116
  H           1.74267670043701      1.02404447389914     -0.27891757375078
  N           2.20596414856933      0.10827336793110      2.20114253637893
  C           4.05103989182659     -3.68784334631621      2.85089183194189
  C           3.60805667852708     -2.68095721779622      2.12244431114576
  C           2.53877436553957     -2.80641878086164      1.07980245260335
  O           1.44152787929499     -1.91965403443840      1.29494666194532
  H           4.82730315962628     -3.56020225206044      3.58619194102767
  H           3.66409317348765     -4.68733040477094      2.73382222781579
  H           3.99662376373657     -1.68025967302621      2.25316887199956
  H           2.09914009776560     -3.80738876786249      1.09267368782479
  H           2.97319069269892     -2.61263209024959      0.08775245171923
  H           0.61195210207534     -0.25813612440289     -1.90787492042176
  H           0.85860022987110     -1.66668466412981     -1.05312025989729
  H           1.84322533351320     -0.28645900433976      3.05969299517615
  H           2.04318450965170      1.10439041209042      2.15370936667312
