23
Coordinates from ORCA-job NEB E -60.052604286160
  C          -0.12411744928762      0.90274796676137     -0.51429023198319
  C           0.76432564075576      0.04337586249408     -1.21911967092771
  C           0.31172929586977      2.15834334445276      0.18032788691662
  H          -0.96014209112372      1.14732536396193     -1.17152355787189
  C           2.21058144307212     -0.23018555724343     -0.79409115955143
  C          -1.15937030993114     -0.28416250028870      0.56938704113089
  C          -0.98099991620054     -1.57546009930678      0.02122675881691
  C          -1.12118529341859     -1.73773850548974     -1.36157449147863
  O           0.24204126431760     -0.85841600813551     -1.95382402469745
  C          -0.87789616690552     -0.20366912016027      2.06412406580097
  H          -2.10850856835744      0.20235951636523      0.35876733624990
  H          -0.30582245001589     -2.24378860245519      0.54165316216461
  H          -1.90784483039336     -1.19078558781941     -1.86887117000220
  H          -0.91679172800126     -2.70833403849880     -1.79081542648265
  Br         -1.28214565951494      3.06699701318836      0.89293231576893
  Br          1.59495904917508      1.99365548138309      1.62737166631873
  Br          1.05960996712255      3.38793125164019     -1.17940064317286
  F           2.96426340242679      0.87681572989248     -0.78276561290227
  F           2.29186262283986     -0.77798568199887      0.42976459203124
  F           2.78331029635818     -1.08492900342883     -1.63791932381969
  F          -1.89615607826527     -0.83799990445944      2.70037286261047
  F           0.24902271428559     -0.85691437975760      2.40489551359668
  H          -0.83072515480801      0.81081745890307      2.48337211148402
