23
Coordinates from ORCA-job NEB_product E -60.092170073300
  C           0.97340643531872     -1.75700852044714      0.47411329343646
  C           2.09494159340542     -2.79309752228055      0.37282143335516
  C           1.35778148889816     -0.28255118603941      0.51750047461647
  H           0.44937857736237     -1.88052762224797     -0.48855737017330
  C           3.44631617643977     -2.65689660954327      1.15386663997236
  C          -0.07880514119570     -2.17446036570201      1.54806513626812
  C          -1.04294576586889     -3.15680861321272      0.92905422413013
  C          -2.32286387144751     -2.89471048527033      0.75313804776693
  O           1.96871115517609     -3.74634180616045     -0.33434245958057
  C           0.50021177479539     -2.79563212056835      2.82655756956292
  H          -0.63595528109503     -1.28635641042605      1.86652331852580
  H          -0.60965831984492     -4.10416633292819      0.64092348343964
  H          -2.75987792448645     -1.95320802804288      1.04323562982798
  H          -2.98603337478300     -3.61793328515084      0.31351784137945
  Br         -0.27053804968659      0.78611024685019      0.24393094286132
  Br          2.15778326580371      0.33107216303130      2.17937794642904
  Br          2.53155791661985      0.14836108875302     -0.99669286505243
  F           3.30922340309314     -2.43966814115663      2.46547699389808
  F           4.14536793125775     -3.77117306543457      1.00312826047858
  F           4.18910463585356     -1.64876323656105      0.67780618514345
  F          -0.51941722016132     -3.13422345192365      3.64263112996650
  F           1.16630442262612     -3.94187445993124      2.54352178194198
  H           1.17440617191937     -2.14164223560720      3.39810236180592
