23
Coordinates from ORCA-job NEB_reactant E -60.100327286760
  C           1.32774890777232     -0.53493092437262     -0.26500656998701
  C           1.92842162481788     -1.56942295568177      0.33810519597626
  C           1.91970804448274      0.54177677888573     -1.09096155894700
  H           0.25171915661214     -0.47240626857505     -0.18062456115769
  C           3.42360241006021     -1.87561955787900      0.33927121463876
  C          -1.22418019351799     -3.58736692640606      3.18075240287811
  C          -0.44761707688998     -3.65011171671021      2.11358804400570
  C          -0.08520400053586     -2.46606890641028      1.27474224227829
  O           1.32180989548186     -2.50706434171656      1.07671078768644
  C          -1.60564283111877     -4.78564218022327      3.99779575258045
  H          -1.66986990309672     -2.66614035395939      3.52699826653876
  H          -0.01734992202727     -4.58743791147431      1.79114647343639
  H          -0.37251183059890     -1.52939483592853      1.76769240760157
  H          -0.59545294815657     -2.53786361401505      0.30325037137788
  Br          0.59459838549283      1.96723177148971     -1.30247177566001
  Br          3.51311635823749      1.38073785686027     -0.32690356661838
  Br          2.34508190821399     -0.10142933181771     -2.92082969486213
  F           4.05225654690545     -1.24188268599781      1.33707474857011
  F           3.63658475079600     -3.17899472277101      0.50951710678694
  F           4.03365460221655     -1.53319237192255     -0.79722584882100
  F          -2.95536479069017     -4.85350506125974      4.13128292730794
  F          -1.21915728029886     -5.94390154881306      3.42029493168251
  H          -1.17865181415837     -4.75707019130172      5.01570070270713
