19
Coordinates from ORCA-job NEB_reactant E -41.557575344460
  C           1.67554606441514      0.06755900998125     -0.01368813727237
  C           1.17671393564556     -1.09070432327311      0.47087267223899
  C           1.97372082612735      0.25554352366463     -1.44105785375494
  H           1.87780874730126      0.89141616023133      0.64580546891529
  N           0.77624833414407     -1.23293826091232      1.78022431279507
  C          -0.08509457502752     -5.16323973494916     -1.50203706030045
  C          -0.27076890348126     -3.87522687555504     -1.26897674487143
  C           0.15678651733009     -3.20122396442320     -0.00202365585720
  O           1.01327777456631     -2.12822292207184     -0.36758432830345
  Cl         -0.58794917073055     -5.92666026194064     -2.95082489353097
  H           0.37676157132777     -5.83730748983889     -0.79586292958096
  H          -0.71941028138940     -3.22786186736009     -2.00692742451184
  H           0.68495745656606     -3.91095426946422      0.64928101133723
  H          -0.72308961558284     -2.80862438480075      0.52477543405840
  Cl          0.53949734886046     -0.04327823194834     -2.47534572086792
  Cl          2.52821115758705      1.90610933394491     -1.74999431822575
  Cl          3.25500124505350     -0.86930524314208     -2.01817402624044
  H           0.90882162504610     -2.14197579496382      2.19652449873400
  H           1.03935994224085     -0.46910440317861      2.38161369523874
