19
Coordinates from ORCA-job NEB_product E -41.581818995700
  C           1.52218984586346     -1.69882993039391     -0.33763263555570
  C           0.81013071567374     -1.18467759709703      0.94495657697680
  C           1.29332625280679     -0.71899152601631     -1.48480485363603
  H           2.59929650172582     -1.73915418517746     -0.14248085310052
  N           1.47460070362897     -0.20852777471741      1.58758861237583
  C           1.03407273508182     -3.13865895632733     -0.60355724792522
  C          -0.22861702176576     -3.27844482772340     -1.38842092754195
  C          -1.36318640967441     -3.68282970335998     -0.84842334459379
  O          -0.21529086273708     -1.66872389583656      1.35323744208480
  Cl          2.33729085657512     -4.06159017700975     -1.43179452228432
  H           0.90932124296342     -3.61668768414701      0.37174110138714
  H          -0.15811327519170     -3.06839558047207     -2.44557909327631
  H          -1.44488888919264     -3.89286522398740      0.20408837017339
  H          -2.25898038655795     -3.78322806145015     -1.43601787115384
  Cl         -0.42062294494763     -0.26031209789072     -1.60930323109768
  Cl          2.23236804304982      0.78247500014973     -1.20569094410454
  Cl          1.84322765637490     -1.35522441370694     -3.05043163637310
  H           1.03527856606587      0.20053770071856      2.39714660673730
  H           2.26809667025742      0.26052893444514      1.18467845090773
