16
Coordinates from ORCA-job NEB_reactant E -36.861479657660
  C           1.92515855232431     -0.07168792018678     -0.01102429837781
  C           1.20867240273629     -1.16264453366798      0.33408507334938
  N           2.26431104720185      0.24937971700850     -1.34924719415954
  H           2.28386153887547      0.62799641172693      0.72424898646127
  Cl          0.86205383465607     -1.40697676961875      2.01411620463549
  C          -0.22419215247255     -5.24711794189470     -1.45548706177873
  C          -0.33032696933875     -3.93250953784673     -1.37530542188112
  C          -0.00848127756871     -3.16115599760603     -0.13434046374256
  O           0.77049261669012     -2.03827605913605     -0.53091863216907
  Br         -0.67439544450333     -6.20781542437295     -3.00954498118213
  H           0.10067221507226     -5.87856240244713     -0.64282765125605
  H          -0.64582007381789     -3.33553021311321     -2.21782285609777
  H           0.54557411428256     -3.77456810875680      0.58572517370266
  H          -0.93566069963643     -2.80985544575498      0.34070930832217
  O           2.92558058049070      1.25699352886368     -1.50215446744421
  O           1.88579971500805     -0.47356930319703     -2.24591171838197
