16
Coordinates from ORCA-job NEB_product E -36.867057888130
  C           1.79318545300900     -1.59365734155552     -0.51823524526263
  C           1.01327288472156     -0.84907709562980      0.54742587912212
  N           1.74845868055264     -0.79648288228470     -1.79585253566058
  H           2.84992868198831     -1.66117429890736     -0.23308751221145
  Cl          1.31654652942573     -1.54069355652755      2.13631235680628
  C           1.19888338611726     -3.00308500148556     -0.67787147294701
  C          -0.27527148875673     -3.03305260813241     -0.89542229111536
  C          -1.08796500622816     -3.73286163812798     -0.12455956091076
  O           0.28008849218825      0.06310994117381      0.40042828904622
  Br          2.12782159902747     -3.89058012390828     -2.20361155681729
  H           1.47409000055414     -3.59614312216592      0.19766645999938
  H          -0.64450998875855     -2.46055938039080     -1.73359039999038
  H          -0.72901486923754     -4.31594561516276      0.70855841620926
  H          -2.14898927264405     -3.74597243177582     -0.29837781393138
  O           2.78898797490572     -0.29559262859004     -2.12202606867085
  O           0.69688694313492     -0.70943221652931     -2.36215694366558
