24
Coordinates from ORCA-job NEB_product E -35.684210072040
  C           3.76496961635848     -0.99606431180630      1.68476300875117
  C           2.65731296425428     -0.52923989675104      2.60765407231777
  I           3.43300348135572     -0.22168020265977     -0.29791419326263
  H           4.68723290165288     -0.52195536267248      2.03177669958597
  O           1.90438711018340      0.42874011847155      2.08691353976261
  C           3.91110681786277     -2.52424467785486      1.76848501999739
  C           2.92038021807455     -3.21511999299638      0.87539123234718
  C           1.73283647329672     -3.62072796125227      1.28291493324092
  O           2.50597322229415     -0.97515072589028      3.71614566627598
  C           5.34846819736359     -3.02106022142607      1.54718762054336
  H           3.65169965304942     -2.76546927202907      2.80886248715579
  H           3.22259740671136     -3.35656728022794     -0.15276963344524
  H           1.40963683966214     -3.49184077744181      2.30392119748737
  H           1.03412058434319     -4.09717826877232      0.61660926965402
  C           0.86246850151905      0.94010058988747      2.90480163675893
  H           0.34497410699310      1.68283933822131      2.30354694933306
  H           1.27836459611367      1.39408606225970      3.80635326621868
  H           0.18315495909910      0.13640508015573      3.19492482982383
  C           6.00066678078068     -2.63383848875770      0.22513654250513
  H           5.32367921516912     -4.11098834721940      1.62516127324142
  H           5.96930604991722     -2.65051364380714      2.36773610832924
  H           5.39517896843182     -2.93650370381526     -0.62486339481981
  H           6.96619327262111     -3.12828933693573      0.14164821206984
  H           6.17188806289248     -1.56213871667995      0.16241365612804
