21
Coordinates from ORCA-job NEB_reactant E -47.971244360460
  C           1.36408723114246     -0.48198331742456      0.06020426280758
  C           2.05987282086927     -1.51234578975353      0.59675399728363
  C           1.87496925472743      0.33517985677779     -1.04449176831579
  H           0.39273523052067     -0.21153708248370      0.42795933921653
  N           3.27738866539281     -1.93016878411726      0.16860401470928
  C          -0.89786688371035     -3.19749844045099      4.00592649092183
  C           0.01398101893872     -3.24128310222568      3.04296368303477
  C           0.29000165559300     -2.14511464278000      2.07354519320273
  O           1.61258466539961     -2.29988996905464      1.60538631448928
  N          -1.10797125708207     -4.32094384594911      4.87584366724766
  H          -1.54280355520396     -2.35987726660400      4.22338460893514
  H           0.61294285916448     -4.13631547558084      2.92426319372559
  H           0.15372642076946     -1.16179279362514      2.54244324964775
  H          -0.41735827657381     -2.22809862065349      1.23335448477093
  Cl          2.20654049748459     -0.63620345163763     -2.53007667618186
  Cl          0.72776554165376      1.60596696382020     -1.47563862647981
  Cl          3.44799910202211      1.14871883663210     -0.63332844073621
  H           3.74801858718364     -2.59631822196279      0.75751585704971
  H           3.84779210371597     -1.28500667744612     -0.35159822042644
  O          -0.44183690352812     -5.31611542119950      4.70027392955552
  O          -1.94926877847967     -4.18457275428109      5.73591144554218
