20
Coordinates from ORCA-job NEB E -41.808237339840
  C           1.08730749260348      0.22664056484776     -0.55321117931090
  C           0.43133748405357      1.13940584644793     -1.38016713440780
  C           1.07881161673113     -1.20301060174969     -1.04340741746289
  H           2.03855206002997      0.52072561643499     -0.12439526229451
  Cl          0.87370804181909      2.82898817823547     -1.20812930396825
  C          -0.20747876356129      0.25011494858988      0.95224035805684
  C          -1.39638674676212     -0.06001647269380      0.30177626216174
  C          -1.87632312482555      0.84447998028318     -0.69160041883037
  O          -0.73052136632570      0.88501519412479     -1.84851959577826
  C           0.31974993193283     -0.64907343230726      2.04398047850238
  H          -0.03078791631670      1.29757226994865      1.18381904776087
  H          -1.72277754584432     -1.08960339865228      0.26817239188198
  H          -1.90404630466967      1.89454760887584     -0.41125155626626
  H          -2.75245588606956      0.53709848389405     -1.24920352659345
  F           2.03336573565654     -1.35164410347812     -1.99579374272566
  F           1.40484818468769     -2.08433692399145     -0.06963229858500
  H           0.11774650741030     -1.50772808689999     -1.48165275124961
  F          -0.11633008558526     -0.15236553561048      3.25122895082024
  H           1.41223357033890     -0.65616041297057      2.09195018520883
  H          -0.06055288530334     -1.67064972332891      1.96379651308009
