20
Coordinates from ORCA-job NEB_product E -41.853714070770
  C           1.41724414887494     -0.11410767243820      2.42673077536892
  C           1.07473030404381      0.93338622883835      1.39610591070058
  C           1.33136481653701     -1.48764217833809      1.75219658075769
  H           2.44269249315405      0.03482864909773      2.77861342028712
  Cl          1.75096503758272      2.50119325347073      1.80126153034133
  C           0.43878829365513      0.06315086836070      3.61899518010817
  C          -0.95841031933010     -0.34994158410715      3.24834801811632
  C          -1.92949630640341      0.50458402854868      2.99043683213194
  O           0.39942738259109      0.79530438487549      0.43323960756506
  C           0.92571680407018     -0.69288179767937      4.86152881729867
  H           0.43981677636750      1.12810911475653      3.87819090626368
  H          -1.13654115075838     -1.41610306379436      3.21696481808379
  H          -1.77592336734074      1.57037764919887      3.02938766673311
  H          -2.92044656816986      0.17457836300539      2.73349782149584
  F           2.36946278011025     -1.62907284926673      0.89705666023471
  F           1.45207908690411     -2.49277252862041      2.64863084509217
  H           0.40039342123439     -1.63437892928018      1.18627247017014
  F           0.27296847351505     -0.20012342778456      5.96104373088446
  H           1.99526716591510     -0.53506253055597      5.03513787637893
  H           0.70550072744716     -1.76242597828747      4.81486053198736
