16
Coordinates from ORCA-job NEB E -31.828867470330
  C           0.12760501626117     -1.35945060598144      0.21685861809263
  C          -0.41353768869470     -1.12611749132174     -1.05280177489268
  C          -0.77455319700936     -1.52478471982891      1.29665413551284
  H           1.04078523186426     -1.93733610041007      0.29405959765381
  Cl          0.63736906847137     -1.53010413837790     -2.41314934045242
  C           0.67311127447075      0.61992434448840      0.68535900405488
  C           0.13807879042151      1.39353708404609     -0.34465176453472
  C          -1.23244536520494      1.29623399620432     -0.59607067463829
  O          -1.37499628212176     -0.36381420237799     -1.27666031522749
  C           2.08100949464767      0.50661777272101      0.81227017856833
  H           0.13402957276484      0.56205618731464      1.62496609961426
  H           0.79380208947693      1.68975155224643     -1.15385100983977
  H          -1.65832860207805      1.83979508172634     -1.42576367322733
  H          -1.90404069841323      1.13832530211292      0.23828073110271
  N          -1.48653123982433     -1.62617074533409      2.18793946389598
  N           3.21864253496786      0.42153668277198      0.90656072431726
