19
Coordinates from ORCA-job NEB E -45.034530719390
  C           0.82979110033067     -0.64885384334605     -0.64607081877434
  C          -0.30553489294074     -1.34301721396602     -0.15624814807275
  F           2.00562534045779     -0.88109268492633     -0.03339631796291
  H           0.97719793368264     -0.58555782837733     -1.72435144980666
  C          -1.50161847308602     -1.46753080187661     -1.08523703506893
  C           0.46691375474578      1.06707135627493     -0.04577558439741
  C           0.29203441654479      0.89214981711305      1.33814805435550
  C          -0.79005907808991      0.08819408333242      1.77903013695146
  O          -0.51480202985038     -1.38269248683687      1.12068040934837
  N           1.65559285689725      1.82994528033169     -0.47011050107551
  H          -0.37788213512727      1.31266378329298     -0.68483823212127
  H           1.16943495517729      1.00318653157616      1.96131056568534
  H          -1.76695560769587      0.31163607149003      1.35860698638166
  H          -0.82604458730337     -0.13790269084178      2.83724224039595
  F          -2.10358193136369     -0.24959679145359     -1.26475500700616
  F          -1.12592543672105     -1.87525798706914     -2.31316679820026
  H          -2.26029877834525     -2.15744755815954     -0.69063423758562
  O           2.52619508795721      2.01840761476726      0.33586765344627
  O           1.64991750473015      2.20569534867473     -1.61630191649273
