19
Coordinates from ORCA-job NEB_product E -45.066400308890
  C           2.28876726948249      2.25861504187651     -1.07949655330325
  C           1.12518605180978      2.35268008483879     -2.06560861065435
  F           2.16723999466098      1.10688160724424     -0.34204527031891
  H           3.22576559757552      2.17797948652386     -1.65426413064530
  C           0.76228644857120      0.99534061253492     -2.69668085590978
  C           2.33862590230432      3.47692748467458     -0.15218966479395
  C           3.42222282858456      3.34009105819352      0.88130468166395
  C           3.22339771881283      3.54525919204659      2.16915792254940
  O           0.54847840542699      3.36808324105929     -2.31022836551396
  N           2.67520346890643      4.69265999298899     -0.96678701829427
  H           1.36931393430483      3.66238668196438      0.31976748704392
  H           4.39458372465873      3.07353842122273      0.49124503384279
  H           2.25814255919068      3.81625097407366      2.56286589001735
  H           4.02292862570303      3.44461549076821      2.88124731876693
  F          -0.00288317162122      1.15969330461475     -3.78666815709636
  F           1.87967667782162      0.33943788604760     -3.07895255681295
  H           0.21989570497125      0.36180471360291     -1.97265026877664
  O           3.44439571325447      4.53671602716793     -1.87986418417416
  O           2.19337254558151      5.72753869855654     -0.60345269759048
