20
Coordinates from ORCA-job P E -28.731253765830
  C          -1.01697403486712      0.09555318063439     -2.85679285165675
  C          -0.39086879169148     -1.52128670157493     -0.42731956124247
  C          -1.26620233474713     -2.00619931710225     -1.54179181600785
  C          -1.53625423775367     -1.29838554773755     -2.62570670546436
  C           0.17209309679735      0.38860695941931     -1.92718241749656
  C          -0.21733934615129     -0.01638919700519     -0.51987672276863
  H          -1.66602231906880     -3.00343807381907     -1.42543633829144
  H          -2.19143270599000     -1.68326592155037     -3.39208205398209
  O          -2.10486958110606      0.98043765203293     -2.63274134001737
  H          -0.82537125996018     -1.80082119950634      0.53589434506060
  H          -0.68528800808294      0.19235492587393     -3.90451950733280
  H           0.58483903341701     -2.01628693778030     -0.49747257598107
  H           0.42672246225781      1.44927833427668     -1.96867556946290
  H          -1.13485369752218      0.49914318150775     -0.22812142599545
  H           1.03959823316266     -0.18535994314893     -2.25999187737093
  Br          1.14887163587618      0.57722530584500      0.76832323817151
  C          -1.98494843677354      2.23930446307776     -3.24391877946163
  H          -2.92145651198696      2.75890986119784     -3.05079011720893
  H          -1.83842643446164      2.14321489422821     -4.32686638460498
  H          -1.15844676134801      2.82673408113113     -2.82798153888591
