20
Coordinates from ORCA-job TS E -28.626567361580
  C          -0.50415742590150      0.04598935406506     -0.84434582393808
  C           0.76066697228690     -1.99649044677798      0.72750877224922
  C          -0.57408548030686     -1.99986158101005      0.46572083158390
  C          -1.19412589311784     -1.01218860156006     -0.31791095378624
  C           0.14768378259678      0.89434375828620      1.17655093114103
  C           0.89014193793266     -0.02519434004243      1.84331231532040
  H          -1.22071429774219     -2.66599272945553      1.02036606511304
  H          -2.27250860290123     -0.96575488889127     -0.34613582555036
  O          -1.18646100855725      1.03897462119087     -1.46245275642993
  H           1.18095777963614     -2.71236413791553      1.41586092291694
  H           0.55255391156981     -0.01768318928834     -1.07198011670318
  H           1.46128926900355     -1.57040465575995      0.03246199841446
  H          -0.88575728059950      1.03611712042708      1.43617330815553
  H           0.53091484795216     -0.57502783309796      2.69469083767185
  H           0.62504560149386      1.68447040873378      0.62476851353275
  Br          2.79742200319639      0.12054883943570      1.82717811986403
  C          -0.41702076072938      1.98705625756646     -2.16353741488180
  H          -1.12295213309819      2.63887967313813     -2.67461436862121
  H           0.23477776287632      1.50728059445641     -2.90058589290754
  H           0.19632901440939      2.58730177649940     -1.48302946314484
