24
Coordinates from ORCA-job NEB_product E -36.603247054580
  C           2.67228812117084     -1.26713873734032      1.00290209147313
  C           2.57653484976879     -0.20551520466390      2.09223690360852
  C           1.83508981131367     -0.76203983780549     -0.19171769878398
  H           3.71875990515990     -1.37053689263987      0.69281026179116
  O           3.37217838768061      0.86172246155131      1.90859912709320
  C           2.18291576002208     -2.62057154088433      1.55323998118510
  C           2.12601201490572     -3.67689758729070      0.49008088091848
  C           1.01595906787409     -4.26854986908799      0.09218188605261
  O           1.83264029762842     -0.26005344534532      3.02853682119405
  C           3.11248097520695     -3.08903690037709      2.67906396245941
  H           1.19232900826184     -2.47405114472883      1.99370932188155
  H           3.08547371138240     -3.96179892070051      0.07847282695525
  H           0.05479400098542     -4.00507623416368      0.50260973035721
  H           1.01785637053133     -5.03728765241660     -0.66162620059971
  C           2.39029139307587     -1.20003141066057     -1.54188775793361
  H           1.79497029204644      0.33115084362225     -0.16948252387263
  H           0.81218990883857     -1.12376216818175     -0.08050952221262
  H           3.40673918484042     -0.83672909688983     -1.68190316599771
  H           1.77334218073248     -0.79884330555026     -2.34227521280740
  H           2.39505936140443     -2.28278523452362     -1.62344860560585
  H           3.93584956403445      0.77553855564464      1.12794885638896
  F           4.41213794709611     -3.17028960332358      2.23133875050678
  H           2.83533107080793     -4.08962175442961      3.02364239512995
  H           3.10807681523123     -2.38749531981433      3.51707689081817
