24
Coordinates from ORCA-job NEB_reactant E -36.576424113810
  C           2.16690213456421     -0.12377680737669     -0.14891788233688
  C           3.00218611933789     -1.09203392978415      0.22268573964699
  C           0.83700771179277     -0.36959935486495     -0.79169376756675
  H           2.47232084528309      0.90510220014091     -0.02719434215748
  O           4.22270386227497     -0.85880468519024      0.79915657813825
  C           2.71453986160860     -4.45492883266009      2.83723781596646
  C           3.16948329555192     -3.39352523675946      2.19472654822515
  C           3.47590892390090     -3.36748149200209      0.72826310315100
  O           2.70113509763612     -2.39893321231487      0.03540140469638
  C           2.40767937184394     -4.49660373832033      4.29991468160566
  H           2.54128175504663     -5.39310008843505      2.32801106509047
  H           3.33054069859704     -2.46311726615024      2.72069140001032
  H           3.21204788543358     -4.31762360664851      0.25793987518263
  H           4.54455025242418     -3.16882028186177      0.57739956193659
  C           0.84221461021646      0.03604231191186     -2.26605798679959
  H           0.07009309193657      0.20711837687381     -0.26691327841396
  H           0.59411778773152     -1.42834767877562     -0.70474138679537
  H           1.08539877673188      1.09143294600467     -2.37065701355026
  H          -0.13394371669131     -0.13910162763205     -2.71249172289039
  H           1.58248079933057     -0.54419112890833     -2.81148279255173
  H           4.36600394912325      0.09076315362878      0.85979021027172
  F           2.65910329349978     -3.29951110125937      4.91938091138063
  H           3.02308676168792     -5.25050648732273      4.80779470749197
  H           1.34735683113754     -4.72415243229350      4.46965657026819
