21
Coordinates from ORCA-job NEB E -46.045789288270
  C           0.19434997570354     -1.03148028295376      0.49039487069396
  C          -1.14071218060148     -0.99778450647236     -0.01144246963457
  O           0.29076029318659     -1.01064210240681      1.84872103647922
  H           0.87620458842284     -1.72873924674405     -0.00458442909991
  C          -1.37148237213154     -1.49667738194733     -1.42917222875163
  C           0.76676724800812      0.63069478476669     -0.11452353428630
  C          -0.12279882107467      1.48616325202641      0.56810003020148
  C          -1.48500084841230      1.44877995143692      0.19677444045374
  O          -1.96428871285301     -0.12657004814669      0.45696486697881
  C           2.24885915297634      0.69667984425384      0.18622022648066
  H           0.61607564784841      0.53125677707565     -1.18615999550724
  H           0.13629111154928      1.78798461160057      1.57284144744096
  H          -1.70927750867744      1.51973908661661     -0.86297200822873
  H          -2.18045695186534      1.99708673866258      0.81793688942312
  H           1.20715861129271     -0.90168778543112      2.13487576314865
  F          -2.59370950510488     -1.99856776005267     -1.60387427257429
  F          -1.23520657100778     -0.51396412991634     -2.35861625435101
  F          -0.49528839238548     -2.44977220390178     -1.78833477730451
  F           2.50679845634153      0.67628281783830      1.53601377732408
  H           2.66707205638376      1.63276654394833     -0.19975122524491
  H           2.78788472240080     -0.15154896025302     -0.24941215364158
