21
Coordinates from ORCA-job NEB_reactant E -46.077819829710
  C           1.68247345143421      0.08938011639851     -0.04424876866686
  C           1.44444536097223      0.62927003501667     -1.24373727878422
  O           1.84788419038965      0.79918809488162      1.10811222348504
  H           1.75381300554027     -0.98625003903897      0.02651433443803
  C           1.24561800889308     -0.27284143051781     -2.43741080947503
  C           3.98899450982662      3.95870272195736     -1.22025827490972
  C           3.23804595546182      3.00860026895498     -0.69070318128533
  C           1.74371503765814      2.96978972464907     -0.78948613497959
  O           1.29288613246114      1.92176929330213     -1.64301821962635
  C           5.48041114948960      4.00318136950011     -1.13531913962023
  H           3.55461710295339      4.79049043539251     -1.75699198423849
  H           3.69761261320408      2.18406248802706     -0.16538489731760
  H           1.36238963492939      3.87565657717886     -1.26558976079242
  H           1.30326995455884      2.85924369476902      0.20642487256245
  H           2.15226573581340      0.21771456713089      1.81222187435054
  F           0.01912449293278     -0.15674448830766     -2.96532188860046
  F           2.11110058309184      0.00178070557471     -3.42252792300471
  F           1.40645011000544     -1.57378734455290     -2.14621539326015
  F           5.98912990307791      2.95886698324216     -0.40634924574327
  H           5.81784535475683      4.92515557681100     -0.64499438083889
  H           5.92890771254934      3.94097064963067     -2.13491602369274
