21
Coordinates from ORCA-job NEB_product E -46.074137868000
  C           3.18627320072110      0.79621984562610     -0.61931214377186
  C           1.72100534310192      0.49953673144932     -0.85063164971952
  O           3.55781948746719      0.48915521258879      0.67941086980944
  H           3.80541217553630      0.17297899221660     -1.27563553635695
  C           1.27710539751116      0.41092404103491     -2.34075063895913
  C           3.41160261385635      2.29847665153519     -1.00837211350245
  C           2.53382869590947      3.19918814361341     -0.18487134097167
  C           1.56935848423322      3.94839967726979     -0.68287092936956
  O           0.91146128343628      0.38299165094855      0.02336316896947
  C           4.88725529700779      2.67361139675632     -0.81910107988185
  H           3.18308791857783      2.41495742724757     -2.07161349712779
  H           2.76167026790648      3.21525294304178      0.87208433026628
  H           1.33373221113066      3.95584154227698     -1.73423532777533
  H           0.97046360313500      4.58329613848042     -0.05393354029506
  H           2.88465325968740      0.81062024290189      1.29457143095723
  F           0.34345160034561     -0.51847247592567     -2.52053014212579
  F           0.77275408010702      1.57987340181230     -2.76239348892763
  F           2.29755651494792      0.11862997241986     -3.16230506994065
  F           5.21894060943185      2.75637370787145      0.50333779317176
  H           5.07567367362303      3.66207638538378     -1.25178195521059
  H           5.54949428232641      1.92776837145069     -1.26992913923835
