20
Coordinates from ORCA-job NEB E -45.506148566800
  C          -0.79810907463399      0.22742893195549      0.82660456342827
  C           0.28565973653115     -0.65859027307116      0.85274448661971
  Br         -3.27249150573975     -1.02234185185970     -0.31826910465142
  H          -1.32780353831855      0.73600346880839      1.60081274299199
  C          -0.00262056250907     -2.04428020672029      1.47057685399472
  C          -0.56654775039354      1.16329041059877     -0.39421742659866
  C           0.74390492793661      1.58620557099276      0.16575875861727
  C           1.80462866329051      0.66044830649198     -0.25062073501412
  O           1.42717390220419     -0.64407763661832      0.18210248354804
  C          -0.59372023320832      0.53347715196927     -1.77891308833981
  H          -1.36283292346455      1.90438799525751     -0.35394697476134
  H           0.97900406469795      2.13986499964714      1.05461460978084
  H           2.84026476999002      0.82189395227710      0.09123395648613
  H           1.82348562557850      0.68457793561950     -1.35961698428575
  F           0.75600475704267     -2.32396800740374      2.54484246499477
  H           0.21648567135870     -2.78351005557095      0.69569483724022
  H          -1.04550255014808     -2.06133470733302      1.79999025607759
  F          -0.24891305374560     -0.75459350310486     -1.86106194420745
  F          -1.85348276140481      0.63562035228196     -2.35230456389460
  F           0.19541183493597      1.19949716578217     -2.61602519202639
