20
Coordinates from ORCA-job NEB_reactant E -45.591259125080
  C           0.41634731339148      0.39898382611548     -1.23132649199326
  C           1.73302439513072      0.54977430387088     -1.37639120747216
  Br         -0.68303867002726      1.86264226542839     -0.79575635573251
  H          -0.09413324311671     -0.54268424030743     -1.31308229153702
  C           2.60559040522079     -0.63446636980875     -1.70553738240630
  C           2.05394821512195      2.55013027352393     -3.85071407466593
  C           3.24451708050965      2.38633363842164     -3.29873820799797
  C           3.46327649361504      2.12920283344956     -1.83883541036007
  O           2.29041539909472      1.76858637750851     -1.14197608714442
  C           1.86481382215943      2.79326694982682     -5.31254598532176
  H           1.13039196910075      2.53288153768498     -3.29200590329838
  H           4.14390017324847      2.42602249549877     -3.89650064584787
  H           3.79935482858166      3.05387831004740     -1.35658904051342
  H           4.25483545086401      1.37936595453294     -1.71899208834449
  F           3.11540629217237     -0.54929833218545     -2.98146797272544
  H           2.02613967796515     -1.55926356181527     -1.65701652707194
  H           3.46390051947962     -0.69264399628145     -1.02546732399766
  F           3.01067947974313      2.79909224224637     -6.00737180143353
  F           1.07798903890284      1.86060562691038     -5.87679388593837
  F           1.27014135884221      3.97638986533229     -5.54999131619752
