21
Coordinates from ORCA-job NEB_product E -47.079012090500
  C           2.10430766317214      1.93109051542050      0.39403440219932
  C           0.89815309352719      2.55710168398897     -0.27609634907007
  C           1.68536644996619      0.57164478810953      0.96770757368651
  H           2.89945645293338      1.78299558171033     -0.34568892703772
  N           1.03320159055030      2.68825839806508     -1.81430509640505
  C           2.58524821826116      2.87996886979217      1.49839406845627
  C           3.93063264641940      2.53462166209149      2.05943842862079
  C           4.17099457095313      2.42440663699854      3.35186939978775
  O          -0.16088556237188      2.78457202753914      0.21078902200234
  N           2.63067183356204      4.25625124481416      0.91057866932434
  H           1.84197734305962      2.93460427633878      2.30491684456145
  H           4.71113771610062      2.38161089876787      1.32824808824593
  H           3.40370685566883      2.57151687743956      4.09362985510024
  H           5.15058706594128      2.17656786440090      3.71864806922915
  F           2.76519503645719     -0.05403756567128      1.52339316230162
  H           1.30805833342936     -0.08398846270220      0.17667710447269
  H           0.93251121591094      0.68592782473403      1.75420909581661
  O           0.06764677096669      3.10805398205529     -2.37957556448283
  O           2.07801455708181      2.33313880470750     -2.30167567973121
  O           2.02507865992162      4.41471012980641     -0.13236827368600
  O           3.23513948848900      5.10078396159324      1.50037610660786
