21
Coordinates from ORCA-job NEB_reactant E -47.067761718610
  C           2.07694428503098      0.27698121036892      0.07175080600586
  C           1.47647775409323      1.46290172451230     -0.01079678661360
  C           2.10998378808983     -0.54612250486345      1.32395284054485
  H           2.58912661993942     -0.09632614863037     -0.80277769251833
  N           1.50203469963524      2.18759748923443     -1.30429938281141
  C           3.45969990677492      4.23005067315572      2.01947551513087
  C           2.25484602833209      3.91940027718163      1.56012147667159
  C           1.48206571760139      2.72069211204756      2.00413113877418
  O           0.76625086459516      2.11363673429818      0.92792979371630
  N           4.14955298500684      5.41121942924936      1.57623716864777
  H           4.01715160068864      3.65412636092163      2.74329840853483
  H           1.78187958987685      4.54733733479315      0.81233453695729
  H           0.69661201131556      3.03910907101099      2.69759736630599
  H           2.13442311881749      1.99880730926499      2.50534023460197
  F           3.14746076298740     -0.13348612889981      2.13523920317647
  H           2.28678731736672     -1.60079941714104      1.10052171850935
  H           1.19094220588195     -0.42136275551342      1.90722549466701
  O           1.10378777624060      3.32405195532631     -1.28587632068238
  O           1.92431269677474      1.59045659798620     -2.26468397543155
  O           3.58324044210775      6.15335594120442      0.80795146018247
  O           5.26631982884318      5.57447273449229      2.01602699563046
