21
Coordinates from ORCA-job P E -28.737918054740
  C          -1.58697779303369      0.51888658922879     -2.21861695408117
  C          -0.12647223491322     -1.55370334827401     -1.19573709745867
  C          -1.48607588822808     -1.84317656999784     -1.74007337935191
  C          -2.18903890565813     -0.84877031469021     -2.25882216860951
  C          -1.07158772230666      0.80247942545753     -0.80426391593230
  C          -0.13411697555155     -0.30058490849622     -0.27691497864007
  H          -1.85621770711063     -2.85561065282261     -1.71033650913180
  H          -3.17676560510069     -0.95385582370241     -2.67498313892499
  F          -2.52178201482462      1.47648284753185     -2.56242179599986
  H           0.27013243966740     -2.40664814690446     -0.64306350735688
  H          -0.77878158881937      0.61530879986245     -2.95951525195295
  H           0.54483264120610     -1.35560592101716     -2.03680347530741
  H          -1.94774985229011      0.88113637623728     -0.15953720244136
  H          -0.51050407183152     -0.61846995992446      0.70188361251143
  H          -0.55713289920787      1.76245629062746     -0.77590769051653
  N           1.18713811133129      0.24761657549827     -0.01269313269357
  C           1.97742457688958      0.67193683611547     -1.15075764505635
  H           1.72466045268386     -0.41008024771871      0.54200009820596
  H           1.39684345738957      1.35943083551536     -1.76270225456679
  H           2.33225561364773     -0.14797812073562     -1.79196841909115
  H           2.84928596606059      1.20501943820925     -0.77273519360414
