21
Coordinates from ORCA-job R E -28.656923127140
  C          -1.42587798565543     -0.18783338469554     -2.96645498616583
  C          -0.48974495825138     -2.60302247009005     -1.44876550613564
  C          -1.72804532124203     -2.37677367174563     -1.87285452145261
  C          -2.14620217050688     -1.27524276692062     -2.71945870425348
  C          -0.65754325897749      1.52511752153040      0.26993163458373
  C           0.08920161152747      0.43025827553316      0.19323898094158
  H          -2.51734701070743     -3.06512424256540     -1.59901835771047
  H          -3.12556211045679     -1.35310335613977     -3.17140479688660
  F          -1.89158911770574      0.78157997555874     -3.77337370984413
  H          -0.25652538963664     -3.44368965694264     -0.81846422838563
  H          -0.45590844821022      0.06057032121478     -2.56553305985991
  H           0.32317292347641     -1.95263478483040     -1.71549363090130
  H          -1.59632465198611      1.50559643976743      0.79067945567059
  H          -0.23812942117778     -0.48765633286248      0.66401396920286
  H          -0.37797163779900      2.45991740085656     -0.18046491261579
  N           1.26363317887756      0.27311007659836     -0.52513781910025
  C           1.92555559915018      1.43716805154983     -1.07064261903987
  H           1.90101000677185     -0.38851880189373     -0.10660653491264
  H           2.21237585360670      2.16942071174310     -0.30567310305195
  H           1.25829765649370      1.92668518603137     -1.78158659324005
  H           2.81733465240908      1.11660550830254     -1.60691095684260
