21
Coordinates from ORCA-job TS E -28.642848958530
  C          -1.28732554299682      0.42514158248514     -1.26943655998696
  C           0.07935301380201     -1.87406099476120     -0.26015430618869
  C          -1.25160499780565     -1.85921676440831     -0.48636350269420
  C          -1.93785054486284     -0.76156757812813     -1.04698911764285
  C          -0.71858312054930      1.07971217640181      0.61922361914763
  C           0.17752576334565      0.22700292820753      1.21535334046540
  H          -1.85637493728433     -2.67324429935087     -0.10929027266636
  H          -3.01676711377224     -0.75254210907492     -1.02067549719782
  F          -2.01553386613972      1.48269439639397     -1.69864207506106
  H           0.53924376358005     -2.69402033365946      0.26670935136725
  H          -0.28236280282748      0.48674349695611     -1.66176241171379
  H           0.75069497665279     -1.20067368747056     -0.75780181029268
  H          -1.72488335392697      1.08562918333352      1.00064730724344
  H          -0.17255740090203     -0.53219868254503      1.89630543597616
  H          -0.37805661410988      2.02251079947824      0.22517551883374
  N           1.54178933281984      0.38085025379641      1.21566474110885
  C           2.23095266753748      1.22477569712162      0.27218178606857
  H           2.06265510610913     -0.43560088865469      1.49701608108253
  H           1.77647533388042      2.21424220782284      0.26785096277217
  H           2.21439165901044      0.82958467482739     -0.75087984637391
  H           3.26881867843944      1.32423794122858      0.58586725575259
