20
Coordinates from ORCA-job NEB_product E -40.599019218500
  C           2.84733211936156     -0.04225146908908     -1.39678010229864
  C           1.53148362426524     -0.73067133589642     -1.15015541116235
  C           2.97842718702714      1.03389451007526     -0.44041814205935
  H           3.70908987554010     -0.70952547744262     -1.29060425636715
  C           1.62181507014046     -2.22671758196797     -0.86352130390444
  C           2.87507885478933      0.54248220049371     -2.85339416028656
  C           1.75276131453568      1.52177724426472     -3.05087124795893
  C           0.79842152546218      1.36599988728430     -3.94900866330539
  O           0.46276080609284     -0.19580578490476     -1.18718124497379
  N           4.20199442794617      1.09182379185134     -3.04775534824436
  H           2.76310008174544     -0.29940472758784     -3.54783216961430
  H           1.78737091313314      2.39704027874951     -2.41524458431355
  H           0.75238293491115      0.49623917815938     -4.58485380433325
  H           0.02133298750196      2.09765495612179     -4.08277242639484
  N           3.07523979054327      1.89303145152148      0.30473545128464
  Br          2.70289347871419     -2.51073031168577      0.73833182452983
  Br         -0.14697981081218     -2.95412002429276     -0.60236718853688
  Br          2.46654513542808     -3.10376664094715     -2.38549236556163
  H           4.32402622510301      1.94572520688169     -2.51250827600029
  H           4.36662345857125      1.29792464841117     -4.02490658049876
