20
Coordinates from ORCA-job NEB_reactant E -40.611060476260
  C           2.00600389423885     -0.01256947436012     -0.28548232238790
  C           1.56965685549854     -0.83538856624745     -1.25355433661094
  C           1.92484470925140      1.38721517675715     -0.27611109364820
  H           2.46053516481282     -0.42049662787687      0.60641073911232
  C           1.64472095792780     -2.33120336235126     -1.13927270025129
  C           3.23842379457428      0.70435534519432     -3.75032129252090
  C           2.24940297875437      1.38760871472783     -3.17061893680464
  C           0.90344549024377      0.78657746375001     -2.90353333914046
  O           0.98100560286306     -0.55776814259927     -2.42065827941485
  N           4.52254275663577      1.15920785344351     -3.90138312664212
  H           3.08843969791836     -0.31811081304329     -4.07330788117096
  H           2.39768216542343      2.40312420873181     -2.83995218539471
  H           0.31472042480725      0.67590445292286     -3.82106498584796
  H           0.33920267035932      1.40083653685573     -2.19555433417290
  N           1.88000963900405      2.52990270941912     -0.17593408453487
  Br          2.63703755668560     -3.00886740469286      0.36925752296677
  Br         -0.19260945886289     -3.02756839411666     -1.03168241638311
  Br          2.46004309048290     -3.04448810591215     -2.76222857807084
  H           4.65698404418417      2.14987691566711     -3.77099393635535
  H           5.06780796519713      0.75165151373049     -4.64211443272711
