17
Coordinates from ORCA-job NEB E -33.924391530880
  C          -0.67219036754260     -0.51870854750531      1.01536570730717
  C          -0.83737600864142      0.88067598764584      1.11438024926087
  Br          0.26038512094563     -1.11007561646959      3.01943281028765
  H          -1.50545777418702     -1.17930812242594      1.19211378503651
  H          -0.90989558641461      1.35491212669118      2.08530030418275
  C           0.11374948338998     -0.94470477520661     -0.25236474461674
  C          -0.60683702078701     -0.19922443036585     -1.28170736518366
  C          -0.57952542355928      1.26822048399927     -1.18446521514899
  O          -0.74386768996534      1.75742711779051      0.15309706491086
  C           1.60783165942327     -0.58938600843754     -0.15694474342868
  H           0.05775560196913     -2.02551044462220     -0.38459569649944
  H          -1.36450625773246     -0.68251879079507     -1.86782039167898
  H          -1.37114883723120      1.73564472996632     -1.77529616145639
  H           0.37966713511105      1.69680138809076     -1.50657587326341
  F           1.81994529446818      0.60870037483609      0.43527170507285
  F           2.28894857767092     -1.50545479637304      0.55588900550206
  H           2.06252209308277     -0.54749067681883     -1.16108044028445
