17
Coordinates from ORCA-job NEB_product E -33.975581685060
  C           2.73810059526809     -1.38058406911864     -1.43814128162585
  C           1.26839296972424     -1.15561964088394     -1.16850014059350
  Br          3.68575376195245      0.01072386186447     -0.42811051438745
  H           3.03853816273400     -2.32363922616101     -0.96828874011492
  H           1.04420620568731     -1.00572827331190     -0.09782665470896
  C           3.06694948888986     -1.38647341796299     -2.93677919444699
  C           3.27103634983555     -0.00050239858817     -3.48757190550743
  C           2.32408889452496      0.67908688074452     -4.10427385720437
  O           0.42060264987736     -1.13201573195270     -2.00986171872254
  C           4.28543034308924     -2.26281170416449     -3.22565161935338
  H           2.20846925454197     -1.85461933728886     -3.43551406565948
  H           4.25088086795033      0.42433320697849     -3.31679200189431
  H           1.34097715998150      0.26749482201309     -4.26334064079592
  H           2.49293317977867      1.67948706239953     -4.46212765628667
  F           5.36514641924968     -1.87713432378342     -2.51130181063829
  F           4.03749677302153     -3.54828619061053     -2.86384477032528
  H           4.56309692389325     -2.25881152017343     -4.29037342773464
