22
Coordinates from ORCA-job NEB E -46.894724333900
  C          -0.40873423603834      0.64497954534629      0.89579660164774
  C           0.77612631191527     -0.12152202763259      0.72827402495143
  N          -0.29160467703769      2.08734124936079      0.90944300014065
  H          -1.14396014752621      0.27612403129041      1.60399998159482
  O           1.90715704218451      0.53158872481612      0.47133830415699
  C          -1.35521735140092      0.13998442235882     -0.75026056059144
  C          -1.35647198011657     -1.25326546520761     -0.70894820307345
  C          -0.10715948926640     -1.91758124908325     -0.73371567194066
  O           0.70394087933116     -1.39738962225552      0.64127321214065
  N          -2.66580792520753      0.76728004202125     -0.59792891992192
  H          -0.73221720791353      0.69002452009933     -1.45014038711213
  H          -2.19491924628676     -1.73084812049558     -0.22221097016827
  H           0.60502949092817     -1.60309169543334     -1.48954637383129
  H          -0.11346921499545     -2.98719874643023     -0.57294044275998
  O          -0.82437770467956      2.66539428950895      1.82760336636954
  O           0.29236396582732      2.60591075006875     -0.01375853172770
  C           3.07958329172763     -0.21833995119697      0.19101355936175
  H           3.91376979454783      0.36300889387245      0.57780470877618
  H           3.18925840603852     -0.34006941818668     -0.88859808993607
  H           3.03868446225200     -1.19733188611551      0.67117108564109
  O          -3.38543364534072      0.32776526623725      0.26566086827150
  O          -2.92654081894269      1.66723644705688     -1.35533056198940
