22
Coordinates from ORCA-job NEB_product E -46.950454703500
  C           1.15734984862118     -0.90269269049306     -1.48624709613965
  C           2.43921400885751     -1.15481696439107     -2.33517487251190
  N           1.09379560115781      0.51478547485272     -1.04780928397794
  H           1.24121472016633     -1.52559666534973     -0.58899810585569
  O           3.21209926802103     -0.09286184918839     -2.35765154566629
  C          -0.06869983898425     -1.31138393089007     -2.30665822828569
  C          -1.37101135221377     -1.16277769588680     -1.58022950490323
  C          -2.10899198683056     -2.19042911948119     -1.20605066178127
  O           2.65932477374238     -2.22946206721538     -2.81477889401183
  N          -0.09492490266289     -0.51068242895183     -3.58371715087005
  H           0.08484506032284     -2.35287225773169     -2.62109341428147
  H          -1.68240629070980     -0.14589092413439     -1.38926550812514
  H          -1.81637529403161     -3.20866355269367     -1.40456750927870
  H          -3.03842332375625     -2.05211753239961     -0.68348935326100
  O           1.74637676090439      0.80270693197330     -0.08063573352154
  O           0.39697543177942      1.25850748170886     -1.68935998783650
  C           4.39177429322819     -0.17330673685400     -3.15320272451599
  H           4.99555312020111      0.68833830014895     -2.88245888089925
  H           4.11565806340375     -0.13478387006487     -4.20778905076518
  H           4.92292549481290     -1.10394740831015     -2.94857537133538
  O          -1.16947102039466     -0.26382303425753     -4.04872367953747
  O           0.97689756436495     -0.24002946039040     -4.06652344263885
