18
Coordinates from ORCA-job NEB_product E -43.360016881670
  C           3.05323142204749      1.61786397078244      1.28849222995156
  C           1.91393566955659      2.17693808894549      0.43291039925494
  F           3.39409026091809      0.36080189678932      0.87044608075592
  H           3.93920041763594      2.25548337851432      1.13782319507289
  C           1.66086006762269      1.41108288049181     -0.77311741264166
  C           2.63170977552509      1.61732935259974      2.76954942771118
  C           1.58134555007645      0.57047463895886      3.03550829661157
  C           0.36472813753404      0.85926879340801      3.45325663182316
  O           1.30066237761423      3.16461888520126      0.73038956611948
  C           3.84168587086809      1.38056035953449      3.67395552942350
  H           2.24940689650994      2.61746772121297      3.00501129510109
  H           1.89471582283130     -0.44720639907322      2.84902457440206
  H           0.04831920922850      1.87265959632891      3.63791741138969
  H          -0.36373873542172      0.08764986452749      3.62790525268047
  N           1.45730239962469      0.81508232246862     -1.72711002867018
  F           4.37512615117766      0.16633122231089      3.54300606310258
  F           4.82378790723719      2.26518265243704      3.42700085253400
  F           3.51263079941374      1.52741077456154      4.96303063537775
