18
Coordinates from ORCA-job NEB_reactant E -43.361797276260
  C           1.66669297743590     -0.02059882775277      0.71272159911987
  C           1.46514967766284      1.23226109908435      0.28380752411675
  F           1.55207955333224     -0.42469589678812      1.98906511614290
  H           1.94432071977644     -0.82147364166634      0.04624409120150
  C           1.62737629795518      1.43952480033444     -1.11921958571779
  C           2.63618868521225      1.50039796667164      4.07655813583168
  C           2.38708627119770      2.21641033720874      2.99359950160429
  C           1.03617672494075      2.33212602363284      2.35699772165616
  O           1.11349274826387      2.36184173991571      0.94389880793411
  C           3.99179018601010      1.42737467569287      4.70504206311257
  H           1.88490170598706      0.92004421298116      4.58989386348979
  H           3.17478088110263      2.77203825122240      2.50053108780445
  H           0.60356955208692      3.30531759773321      2.61521582624399
  H           0.36164511894234      1.54332952166938      2.70589231232033
  N           1.75850955865717      1.60505782912535     -2.24326122262777
  F           4.93120844916786      2.09742560064781      4.02446531633422
  F           3.98920932247458      1.93340371101154      5.95194499177732
  F           4.42582156979416      0.16171499927580      4.81530284965562
