21
Coordinates from ORCA-job NEB_product E -44.136620310600
  C           2.81485297255590     -0.61478130328157     -1.12793982034082
  C           1.40798855362740     -1.08945084362256     -0.73707903402546
  C           2.98205381304754      0.84630708169566     -0.70505058776485
  H           3.56196812153919     -1.19454887854427     -0.56952772667225
  O           1.27147366862714     -2.41109895216441     -0.59155082301036
  C           2.95610842775546     -0.92824516451533     -2.63843144577618
  C           1.86407238008535     -0.27467246504207     -3.44326494847227
  C           1.06962195338325     -0.94503591529116     -4.25588675637700
  O           0.48551002360490     -0.34618275552093     -0.59412543578021
  C           4.32199822986710     -0.60399678091550     -3.25108944273566
  H           2.84943677459025     -2.01859469850931     -2.74635824959261
  H           1.76023059770897      0.79410815045484     -3.33153603268861
  H           1.14903004435658     -2.01159334743821     -4.39111166586814
  H           0.30178685394511     -0.44837516000275     -4.82130272046016
  F           4.31117114641996      1.13119250253363     -0.53741276582460
  H           2.49641359144543      1.00778565298681      0.26192229336905
  H           2.58062624337773      1.55770029238108     -1.42948558781944
  H           2.09763656711111     -2.90875364395573     -0.66264932534634
  Br          4.41467960349161     -1.47453969987075     -5.01684185605204
  Br          4.65533969191882      1.28438197472715     -3.54978322393287
  Br          5.78720074154118     -1.34890604610462     -2.18479484482918
