21
Coordinates from ORCA-job NEB_reactant E -44.123855522580
  C           1.23790407734792     -0.59639195972860     -0.36013672406825
  C           2.30970938050935     -0.12118459269832     -0.99911915149337
  C          -0.16096789324668     -0.24806618304889     -0.73827626642542
  H           1.37024146114808     -1.20564468889068      0.51939332226673
  O           3.58976536906846     -0.41385383986148     -0.65150781890221
  C           3.45141836194719     -1.28823131097557     -3.67501617452383
  C           4.02303270802958     -0.10730246996177     -3.50035958684707
  C           3.37327946915418      1.02545934610590     -2.76883980506669
  O           2.18777329155513      0.67019202768252     -2.08991278208840
  C           4.05404343984485     -2.46442523138338     -4.33108130637240
  H           2.45266885591823     -1.47816683752730     -3.29841833952863
  H           5.01463731550034      0.10833545378990     -3.87251749932817
  H           3.06853764182019      1.79799164411672     -3.48278547141531
  H           4.10216951967530      1.46146269477471     -2.07437447907854
  F          -0.73875949365589      0.56538835144859      0.22148412473997
  H          -0.79878770333996     -1.13753435098034     -0.79348568382363
  H          -0.18978335803238      0.30904498951376     -1.67756391608626
  H           3.59992236657422     -0.94806194017550      0.15034609941678
  Br          4.21171374180822     -3.92094765399799     -3.00288141628747
  Br          2.87223052198407     -3.10202394714373     -5.77597701806451
  Br          5.81335092638959     -2.16733950105854     -5.08907010702332
