21
Coordinates from ORCA-job NEB_product E -33.412370163440
  C           2.53021484021198      0.83595531930432      0.58355457330710
  C           1.30796981979563      1.36326147650321     -0.16881770287597
  O           2.12196848379513      0.08335026618894      1.68312948528092
  H           3.13118980046896      0.19216957754427     -0.07273636803239
  C           1.54122481075744      1.98331468782300     -1.52133952012890
  C           3.43015131749887      2.03721879449085      1.00345079252457
  C           2.84396795972534      2.76196603146243      2.17376769395672
  C           2.15438455408840      3.88161730645367      2.07232754955943
  O           0.22359709469638      1.27108726084678      0.35251912678176
  F           4.67699910078715      1.54620381732059      1.32847895452787
  H           3.58798401964988      2.70092969719239      0.14414769768527
  H           3.00421595981819      2.27223149198012      3.12281664491486
  H           1.99236537998151      4.37227174697816      1.12603941145239
  H           1.72046940939416      4.35563094792924      2.93478688551755
  H           1.18294494986663      0.28902033347782      1.83615242128977
  C           0.30654494837362      1.87189859452779     -2.41105087098943
  H           2.41132596526260      1.52869330230986     -1.99646059775725
  H           1.76682416908381      3.04081528680977     -1.35322515874134
  H           0.09898956434016      0.82962060241090     -2.63934889374274
  H           0.46073607478928      2.41001579072390     -3.34224423671234
  H          -0.55776822238515      2.28762766772197     -1.90024788781783
