22
Coordinates from ORCA-job NEB_reactant E -36.993218153990
  C           1.16811812121307      0.03032108493762     -0.02114111728605
  C           1.81241050545685      1.03095219516950      0.58553789565179
  N           0.67779018923048     -1.10085722971062      0.62188418329414
  H           1.04341007170530      0.03998968059364     -1.09273779670202
  C           2.42876419528517      2.18191028385125     -0.15070100184962
  C           2.63820492962704      3.59122447267388      2.90171678015922
  C           3.51456690219034      2.60182067942979      2.86472023201785
  C           3.14733733294647      1.18006049716095      2.55453653388309
  O           1.86957714531385      1.02064567077434      1.98325133122483
  C           2.98565569111899      5.01089115565317      3.21637073861664
  H           1.59476612092003      3.42603207923180      2.67682256799368
  H           4.55735981401034      2.77260685787233      3.09310017995694
  H           3.12556195217988      0.61932978675896      3.49922859532487
  H           3.92015136431962      0.72630899674426      1.91993175741156
  H           0.66300329468166     -0.98978250771004      1.62673209216764
  H          -0.19882318680877     -1.44500576220594      0.25910277479430
  H           3.49513770496740      2.26647446870849      0.05900603797133
  H           1.96088391226423      3.12181460040656      0.14132335152669
  H           2.29705696698694      2.04251192507200     -1.21931434440540
  F           4.31159540366961      5.18588495498557      3.43196781308315
  F           2.66351071871685      5.82717730799717      2.17328900264392
  H           2.45026085000465      5.39678880160536      4.10127239252144
