22
Coordinates from ORCA-job NEB_product E -37.003789830700
  C           2.10145490667041      1.62525105651751      1.08822210598815
  C           0.95713510186203      2.48539441877349      0.53127504168434
  N           1.67855510906765      0.24140087837558      1.23071164804953
  H           2.96186459004839      1.64979242513449      0.41242196577311
  C           1.21638323606619      3.11402005110550     -0.80801623489301
  C           2.52869531426500      2.15147822716686      2.47619398306896
  C           3.71959855088220      1.38911953287757      2.97856778592487
  C           3.71209308010309      0.65371367392584      4.07231529393866
  O          -0.08590041691056      2.59118634492698      1.12963839534383
  C           2.84886174152855      3.64417175876424      2.38591771185413
  H           1.68887126849228      2.04016984133458      3.16870499578762
  H           4.61159059661550      1.48758446996108      2.37605485332145
  H           2.83054254245462      0.55123811111425      4.68282120668348
  H           4.58743443171400      0.12210210690180      4.40158676431186
  H           0.85533368300004      0.19290399178996      1.82296507753040
  H           1.43973044222988     -0.15494174753394      0.32853294104511
  H           2.10227277077710      3.74356664410205     -0.74472372310532
  H           0.36088533524840      3.70455946153742     -1.12543788191507
  H           1.41591103604997      2.33608837505170     -1.54300051301172
  F           3.37118261264927      4.10267364076327      3.54537788495415
  F           3.78245919899757      3.89174469457881      1.42885257390277
  H           1.96794486818843      4.26248204283096      2.15171812376271
