23
Coordinates from ORCA-job P E -35.425855997850
  C          -1.25693103519058      0.18393236796060     -2.56835031699210
  C          -0.08237827845340     -1.67616778196046     -0.87996416805417
  C          -1.41225479493287     -1.99035712755462     -1.48869429620148
  C          -1.96858913163894     -1.10821988044619     -2.30257324722869
  C          -0.79703023195950      0.77917753262791     -1.21535828016761
  C          -0.07857502657110     -0.23892410432836     -0.30702845602470
  H          -1.88254312120772     -2.93011218170366     -1.24999945830427
  H          -2.92545301655230     -1.24060790385958     -2.77703774866347
  O          -2.13493742885866      1.04148193950540     -3.26040433516410
  H           0.16697499017780     -2.37866997813643     -0.08529043424663
  H          -0.36919123939572     -0.01285603577102     -3.20462441476651
  H           0.68991552330494     -1.76677189460171     -1.65334145650515
  H          -1.69860581695016      1.13634752346974     -0.71555351364074
  H          -0.57518490533517     -0.26632918892730      0.66558388650583
  H          -0.15940444235049      1.64963827407291     -1.39030451151598
  C           1.36677396469758      0.16553637505209     -0.04729673834505
  C          -1.53746173469968      2.17137710053333     -3.84258935312039
  H          -2.30638726454712      2.63882119058182     -4.45438208990527
  H          -0.69010855905127      1.88887146679736     -4.48071367749135
  H          -1.19317756904677      2.89176479615844     -3.09237523850167
  O           1.84905178562583      0.25268199164927      1.04308736000509
  O           2.09737274787456      0.40786388356714     -1.15008015783896
  H           1.57785458506074      0.29535163531333     -1.95804935383262
