23
Coordinates from ORCA-job R E -35.345850347440
  C          -1.12836665810434     -0.09206522653759     -2.93205082587031
  C          -0.32501318091658     -2.68354929628999     -1.62934913450432
  C          -1.55089527319300     -2.17583319932481     -1.69487142857246
  C          -1.88432289904775     -0.83021606288771     -2.11806427405345
  C          -1.18610754804302      0.94229034392314      0.48906145262542
  C           0.03530892001422      0.42977920824905      0.45821755072112
  H          -2.39423586866112     -2.77968345524587     -1.38491065039252
  H          -2.81033912918707     -0.41227338364387     -1.74960984741885
  O          -1.43746521991657      1.20541845271395     -3.21802253810578
  H          -0.15091223363349     -3.69525564708010     -1.30721640111597
  H          -0.22148663840847     -0.47688653215979     -3.38301677032175
  H           0.54838675269991     -2.10672711242674     -1.88191670689398
  H          -1.93062650940933      0.56150433961437      1.16756992939740
  H           0.32258074242497     -0.37248914630537      1.12171498190104
  H          -1.50608395846838      1.76356987621983     -0.13465892618563
  C           1.15053743970311      0.90249961384250     -0.40390062717654
  C          -0.72682672331125      1.77476704416938     -4.29906523674086
  H          -1.04121250909432      2.81468479450065     -4.36077871495463
  H          -0.96829055936023      1.26660959148993     -5.23708996025029
  H           0.35236436434017      1.72785623009983     -4.12624653566442
  O           2.29372854467172      0.59385428985264     -0.19841949666077
  O           0.83402374168031      1.70359634521671     -1.43228895566722
  H          -0.12423559677950      1.80435893200988     -1.54282688409528
