23
Coordinates from ORCA-job TS E -35.332840634140
  C          -0.82671053677201     -0.02467993345160     -1.05104042560489
  C           0.61365302623336     -2.00200573870063      0.50258338769822
  C          -0.71735130848497     -2.08284746147576      0.24685680283794
  C          -1.42079549284633     -1.13586783398354     -0.52117474851209
  C          -0.22928059055895      0.88992843122430      0.96510115342788
  C           0.46167877435140     -0.01973607756329      1.71185071110042
  H          -1.31057571872353     -2.80336139947034      0.79203463941043
  H          -2.49955857906923     -1.17437803590914     -0.53458470475582
  O          -1.59149783234824      0.90955573252460     -1.66448218103165
  H           1.08075585751994     -2.68747740820123      1.18889627066315
  H           0.22918352010734     -0.01030642843546     -1.29469281530191
  H           1.28757742563174     -1.48948173113390     -0.16058127043349
  H          -1.26792408253573      1.07387322260512      1.17340939385371
  H          -0.05152983330741     -0.57007354803386      2.48449433198129
  H           0.27077670245850      1.67505888444221      0.41751332671088
  C           1.93217836650363     -0.06340063895638      1.83963647909788
  C          -0.91230389686665      1.93537153336394     -2.34869536764985
  H          -1.66660683135710      2.48150695208131     -2.91167873728417
  H          -0.16535613870524      1.53194199732998     -3.03984602771092
  H          -0.42250304982887      2.62348794878623     -1.65058034598523
  O           2.49689819195910     -0.61290220577461      2.74643723682242
  O           2.64485267229178      0.56626697922644      0.87677892640822
  H           2.06443935434748      0.98952675950561      0.23176396425759
