20
Coordinates from ORCA-job NEB E -49.885150733180
  C           0.77322152647673     -0.98953275477407     -0.16520042383757
  C          -0.43943825274549     -1.40475287743322      0.38644893687551
  H           1.61967934139092     -0.93667243980933      0.50305176178003
  H           1.01545794271216     -1.34579064659141     -1.15719230331101
  C          -1.53438711624667     -1.87773683014286     -0.55916020861481
  C           0.46475301723650      0.89374460891353     -0.30907656799759
  C           0.07606316636247      1.23009698282069      0.98944292006344
  C          -1.10915439768661      0.61972374907694      1.51723329270317
  O          -0.82267424176513     -0.93276629426179      1.54489826569451
  C           1.73076951908215      1.50084445505628     -0.85939657223404
  H          -0.30869662086162      0.85524858497258     -1.07093299600056
  H           0.83384215404319      1.55661548203024      1.68620983986046
  H          -1.99718072971407      0.69535241329967      0.89250811059454
  H          -1.32444669429512      0.83696405760709      2.55723900992236
  F          -2.52559453327551     -2.50697976600528      0.07090168847004
  F          -2.10907460222021     -0.84263593013383     -1.22842698094627
  F          -1.06411214269064     -2.70338922457652     -1.50315277773617
  Cl          1.45274280541284      3.25100653606306     -1.11200297332881
  Cl          3.10441521047434      1.31213219144884      0.24584995866507
  Cl          2.16381464830977      0.78852770243936     -2.42924198062228
