20
Coordinates from ORCA-job NEB_reactant E -49.914916767980
  C           1.48514562062842      0.21996730617153      0.00373807514275
  C           1.51459112594573      0.94483562049623     -1.10597002235620
  H           1.94009685476929      0.54434775033591      0.92017082999794
  H           0.99301555607496     -0.73366902043847      0.01417659322271
  C           0.86398986993918      0.46792939132735     -2.39157197772829
  C           3.16885114207074      4.59277925206362     -1.90202817197402
  C           3.29224701243899      4.10100015609503     -0.67965018290114
  C           2.73796158801939      2.78129888093553     -0.25069132442947
  O           2.07424478180288      2.15597076765691     -1.32884263314793
  C           3.70472360412478      5.89744526712064     -2.36367754213069
  H           2.64274211462948      4.03968842221021     -2.66666203629053
  H           3.81454688896881      4.63932975769245      0.09768139106859
  H           2.03822277426359      2.93653143410902      0.58398468137107
  H           3.55904134109403      2.14285248145486      0.10793569335157
  F          -0.08885619546762      1.31199749739282     -2.80983022351927
  F           1.75158870263603      0.36428544378925     -3.38984065750003
  F           0.28692128777495     -0.73158246659606     -2.26240092432020
  Cl          2.35441102226804      6.91310743636141     -2.95118710023759
  Cl          4.56722887087857      6.80013412864230     -1.11055079385950
  Cl          4.82988603713973      5.62335049317947     -3.72638367375978
