23
Coordinates from ORCA-job P E -27.930626904490
  C          -1.51861039449926      0.41253816313189     -2.38077825889522
  C          -0.10939317367738     -1.58553392591503     -1.11353891512346
  C          -1.44794816078407     -1.91234452960429     -1.68810743071447
  C          -2.11910082129620     -0.96008282376732     -2.31581586576571
  C          -1.05788011056732      0.79304574085960     -0.96426029322970
  C          -0.15519298509910     -0.26407043700133     -0.30150679087534
  H          -1.82663251783841     -2.91757047018058     -1.58573312784914
  H          -3.09348871330110     -1.10792895484574     -2.75208836342386
  N          -2.50500331955127      1.37978722806734     -2.83533207363068
  H           0.26097849298568     -2.39248190775677     -0.47886569304149
  H          -0.62710655638694      0.37364890292047     -3.04205555003061
  H           0.59718975259518     -1.45468365919305     -1.93917042522598
  H          -1.96165488800234      0.92988247800457     -0.37093932698242
  H          -0.58139010940422     -0.50050507941617      0.68016416424264
  H          -0.53154233040714      1.74761149010558     -0.98214831598868
  N           1.15715745760295      0.29904424745326     -0.01286475664943
  H          -2.81929638266081      1.15156436280123     -3.77220422347690
  H          -2.10596544153566      2.31194111014394     -2.85633536935221
  C           2.00936913799498      0.61889916750908     -1.13972651442874
  H           1.65827488049688     -0.31616415775902      0.61977410984272
  H           1.46146213668702      1.24202274025683     -1.84395906819139
  H           2.39862791798300     -0.25535821541675     -1.68210494692948
  H           2.86003612866554      1.18999852960226     -0.76766296428045
