23
Coordinates from ORCA-job R E -27.868337163680
  C          -1.47053108101956     -0.24392937811527     -2.74445981965143
  C           0.37823106266177     -2.58691021160540     -2.18579084950657
  C          -0.91930316374578     -2.50631500255438     -1.89063512141394
  C          -1.80898340267477     -1.40094792322238     -2.15471005565952
  C          -0.60697852146553      2.39395637311639     -0.49394712708927
  C          -0.59057441311923      1.11897274777180     -0.11437400703498
  H          -1.38148087661650     -3.34238077394333     -1.37895639073782
  H          -2.83403472541258     -1.52856051126587     -1.82954230624569
  N          -2.34793697260537      0.77104991902629     -3.03707816129803
  H           0.95686924062761     -3.45832797356656     -1.93252565025465
  H          -0.46483645338768     -0.06775065783707     -3.09645067798357
  H           0.90521991865577     -1.80310782996804     -2.70209734389990
  H          -1.49627725136425      2.98661925598645     -0.37899111092256
  H          -1.48584313959338      0.66164566420284      0.28760421667136
  H           0.25419954395629      2.89668418995132     -0.89509563820255
  N           0.49195040628202      0.26983340097446     -0.10081697265983
  H          -3.23976667916973      0.71764717000986     -2.56731298582502
  H          -1.95779382042961      1.69984073343699     -3.06218900910409
  C           1.72529628138813      0.66255830708180     -0.73542527574518
  H           0.25775194419548     -0.70477175154386     -0.22619801341609
  H           2.09851661814895      1.57070791497554     -0.26110142182711
  H           1.61265273829609      0.85701984718139     -1.81035563523064
  H           2.45942274639187     -0.12874351009297     -0.59798064296294
