23
Coordinates from ORCA-job TS E -27.845813522410
  C          -1.10253845351776      0.20536151017776     -1.31386345380428
  C           0.31304954582963     -1.84930897361841      0.08048880611679
  C          -1.00961426601485     -1.95936898546863     -0.22636879795660
  C          -1.70851330248320     -0.97151030384750     -0.92890147129645
  C          -0.51512920778767      0.94337158275731      0.67220029146391
  C           0.29469666134788      0.06198400871202      1.34913251142634
  H          -1.59187596778712     -2.74027787939983      0.24567023343464
  H          -2.78857393178742     -1.02342567435048     -0.95534182144377
  N          -1.83050993722576      1.20752162346495     -1.93812865625278
  H           0.78153194856672     -2.58948230414150      0.71138909982034
  H          -0.05960160046480      0.21190738491986     -1.58724743318934
  H           0.98415116911453     -1.29454802800267     -0.54955204869707
  H          -1.54296094157923      1.02185211826306      0.97753276181718
  H          -0.13728501427755     -0.56516266225833      2.11394622960953
  H          -0.09242159919147      1.82230922042221      0.21860383075846
  N           1.66793659423486      0.22345277601372      1.50553662049177
  H          -2.79045170782570      1.27652090728748     -1.63168232973969
  H          -1.37672786305538      2.10678847190069     -1.98566724607571
  C           2.43477373887441      0.97670349979111      0.54303441788215
  H           2.13424294810339     -0.62522016526558      1.79448092823436
  H           2.06672919448063      2.00197301950458      0.51081800096693
  H           2.39490365497208      0.56095192626713     -0.47250348364632
  H           3.47418833747379      0.99760692687106      0.86642301007959
