18
Coordinates from ORCA-job NEB E -33.517363687630
  C           0.66919186207474      0.40280145156527     -1.48801686884475
  C          -0.36852471445327      0.70470889808437     -0.61057180502465
  I           0.16827436837964     -0.67397996868883     -3.22896351585303
  H           1.42159998951307      1.15617932134264     -1.67017683951232
  O          -0.15052330666604      1.78583635257851      0.18463627159359
  C           1.55517999573658     -0.97746045303032     -0.26106033777349
  C           0.52752538025770     -1.87430407299493     -0.04459511249263
  C          -0.63115986280367     -1.39841244188291      0.62226347707615
  O          -1.26305628899642     -0.16652544484993     -0.31442552280777
  F           2.61411097006662     -1.36707863249653     -0.98713428979838
  H           1.85635022063255     -0.24793099267306      0.48636744491264
  H           0.43610955433443     -2.70370048034440     -0.72976523448634
  H          -0.47112456943196     -0.85665381070891      1.54929814210137
  H          -1.47643825104776     -2.07191918530703      0.66652608294554
  C          -1.05426346321108      2.01775984579245      1.25295999607914
  H          -1.21753021749476      3.09348542926494      1.30095146249837
  H          -0.61550822378365      1.67515094434259      2.19353990668888
  H          -2.00021344310673      1.50204324000610      1.07816674269767
