18
Coordinates from ORCA-job NEB_product E -33.576732211620
  C           3.80147330403069     -0.56461717685332      1.30726805817423
  C           2.92600361814805     -0.03282514283031      2.42301800251294
  I           2.92164502708323     -0.19145225041595     -0.61758386237443
  H           4.73933456001026     -0.00198088794963      1.31289862012829
  O           2.07632646026665      0.89103229534714      2.00767305423660
  C           4.12295060903436     -2.04354329601017      1.53933585394986
  C           2.96314177517440     -2.94498806764187      1.24138838074129
  C           2.05755051606514     -3.28031159158043      2.13955471788822
  O           3.02754647505946     -0.40322898097188      3.56337711585777
  F           5.19826567206901     -2.38683549386087      0.74986209533063
  H           4.45253328384175     -2.15105216170732      2.58253131975908
  H           2.91429862192490     -3.29161324611388      0.21872448975161
  H           2.11697232708729     -2.93715970489489      3.15967071697683
  H           1.21941294429885     -3.90539110854590      1.88565816182149
  C           1.23429557539420      1.47825541905403      2.99119657446415
  H           0.59048048531795      2.17289894190426      2.45868607542609
  H           1.83455130315715      2.00171523687606      3.73755713291185
  H           0.64341744203666      0.70739721619494      3.48898349244350
