18
Coordinates from ORCA-job NEB_reactant E -33.540776704960
  C           2.07166942766363     -0.16272853688396     -0.02108519864423
  C           1.91629714876942     -0.05511152231738      1.30102336482873
  I           1.84597946834556     -1.84852474120267     -1.24808769896374
  H           2.25584578807832      0.73955698144315     -0.57320472158903
  O           2.00043880047765      1.21348785608361      1.78628793379168
  C           4.46971479105912     -2.66056901460087      3.04593069430863
  C           3.66651402991359     -2.32769081441290      2.05399967827934
  C           2.17776690162128     -2.29572054424713      2.20149523305400
  O           1.66736237250678     -0.96811507835513      2.26639439656441
  F           5.80015784640192     -2.67340468104706      2.90523022546108
  H           4.16388691839111     -2.96490035391396      4.03737379769823
  H           4.08073684614024     -2.03565599801202      1.10032571609326
  H           1.87650236752479     -2.73018502126411      3.15790741902704
  H           1.70108876365320     -2.85706179800008      1.39224672040985
  C           1.95610540825362      1.38858429448943      3.19033895618213
  H           2.07654973503233      2.45850579972010      3.34556205975720
  H           2.76690010614282      0.84734639103175      3.68462426015969
  H           0.99958328002463      1.05698678148922      3.60033716358175
