17
Coordinates from ORCA-job P E -26.032958497450
  C          -1.36180159900170      0.42684380974742     -2.31439778962734
  C          -0.00766580969692     -1.61795758893568     -1.06757377146503
  C          -1.38451245366226     -1.89119098310075     -1.58796817411973
  C          -2.03659732070502     -0.90877029211892     -2.18840512800312
  C          -0.76742513670528      0.82559179341966     -0.94276872247320
  C          -0.01945386052294     -0.32039549594498     -0.25302661846345
  H          -1.80478641974117     -2.87557185800639     -1.45922610058420
  H          -3.03028698371459     -1.01369551057249     -2.59466330424143
  O          -2.19804511745274      1.43553061652929     -2.82117403588836
  H           0.36038433322511     -2.43748482948512     -0.45108394155579
  H          -0.54579591682867      0.35129673616474     -3.04490778664822
  H           0.67859897277941     -1.49179600518301     -1.91043180691781
  H          -1.59300665795232      1.15042551352843     -0.30397723156390
  H          -0.45578468518988     -0.51572081901499      0.72925748176304
  H          -0.10929814674439      1.68231466325189     -1.08730028782595
  Cl          1.67945167499819      0.15481869321736      0.08428138340557
  H          -2.96692487308482      1.52294155650354     -2.24583416579108
