17
Coordinates from ORCA-job R E -25.951692887910
  C          -1.37375906647570      0.13795636736965     -2.84778535757251
  C          -0.11564153238857     -2.37761610454082     -1.73258884246948
  C          -1.40447097382864     -2.05412699874188     -1.70068286745121
  C          -2.02293235952983     -0.90367677296818     -2.32484674307975
  C          -0.74119008064228      1.39838080226605      0.15494475984657
  C           0.12601398336131      0.42747767074355      0.35561581983100
  H          -2.09224443689292     -2.69986707492572     -1.16846714624418
  H          -3.10741897110923     -0.89884858701570     -2.34025790511242
  O          -1.95480186260436      1.21690828581905     -3.41687897808733
  H           0.25351469257125     -3.25394683612382     -1.22853585391811
  H          -0.29864685114213      0.22254089110129     -2.85679984502788
  H           0.61377277707937     -1.79284679562250     -2.26413479470271
  H          -1.71726634586662      1.35569879105586      0.60431781046396
  H          -0.07199197128429     -0.44670558669930      0.95529170870003
  H          -0.51629105006780      2.25474361395971     -0.45575440338223
  Cl          1.69986085728823      0.43317706136629     -0.33228071141206
  H          -2.91557680846780      1.11102127295647     -3.41717665038168
