20
Coordinates from ORCA-job NEB E -49.875031469920
  C           0.52206300629915      0.81934870979482      0.24288057180937
  C          -0.74579585869539      0.36871014157068      0.63955270498585
  C           0.60531129763596      1.82186220842442     -0.88014000283213
  H           1.18748083479594      1.12976822309088      1.04356146376258
  C          -0.94269650552530      0.04861625087272      2.11065820206771
  C           1.30946923624560     -0.77042981708199     -0.62651479824908
  C           0.29692175668297     -1.71797921164428     -0.66401244705286
  C          -0.95388672364316     -1.29358589816102     -1.22228606755522
  O          -1.53933720261195     -0.23375998221122     -0.18803601626991
  H           2.18465473415306     -0.98323449313486     -0.02940065551868
  H           1.52762023536461     -0.25508112646415     -1.55103874458449
  H           0.26060667546628     -2.47280791185713      0.10972067783775
  H          -1.75229278433491     -2.02815694846047     -1.24274332867583
  H          -0.89187837704500     -0.72838540690892     -2.14912016829825
  F           1.87137003879861      2.04468534045316     -1.26579088086102
  F          -0.07649911739381      1.50533777737524     -1.98445004357437
  F           0.12960022477466      3.00999456161245     -0.47160869351216
  Cl          0.21607363136865     -1.22824491859532      2.62447226226050
  Cl         -0.62958678010866      1.49189635145932      3.09383175127366
  Cl         -2.57919832222731     -0.52855385013434      2.41046421298659
