20
Coordinates from ORCA-job NEB_reactant E -49.907935516720
  C           1.66471741247966     -0.18697499453503      0.07787588855767
  C           1.57381423518700     -1.42739269515900      0.57829757692146
  C           2.03782522853346      0.26996429960824     -1.29052231549278
  H           1.43126986828491      0.64156362622152      0.72643587359783
  C           1.20258628133888     -1.60872899191590      2.04564942237305
  C           3.62068095150352     -4.84643491046691     -1.92469154182757
  C           2.53511468327507     -4.31543696665144     -1.39761476733560
  C           2.31399409418583     -2.84069262206117     -1.25103375719248
  O           1.80362198410645     -2.62774490541151      0.06783857118646
  H           3.73352624553464     -5.91072365336012     -2.03282196710855
  H           4.43464183939484     -4.23804758617069     -2.28289793466454
  H           1.72252828839863     -4.92778705208110     -1.03492508458082
  H           1.57466266863609     -2.50604386337528     -1.98876848034360
  H           3.25094409986514     -2.29585405492248     -1.39286718740706
  F           3.30968210001864     -0.01368006641489     -1.64351176404405
  F           1.26658209582832     -0.23724545320133     -2.27333921639114
  F           1.92226819371941      1.59912693945593     -1.38097144608223
  Cl          2.73221841458645     -1.83095545332314      2.94086495025424
  Cl          0.33353728879833     -0.24204958336225      2.74120924452778
  Cl          0.20548402632471     -3.05886201287343      2.24719393505193
