20
Coordinates from ORCA-job NEB_product E -49.921019247990
  C           2.48119921776174     -1.61262126498788     -0.01320872894334
  C           1.19239643954052     -1.95608763190502      0.70548933202358
  C           2.23874468189009     -0.46409614121486     -0.99597796672481
  H           3.23143959165806     -1.25489945442704      0.69779874481142
  C           1.33097764497427     -2.05184649190953      2.23876618777780
  C           3.03780627177494     -2.85414644598837     -0.75631421305738
  C           2.13231922863527     -3.35651243908056     -1.83896846625513
  C           2.50290587247898     -3.46767322207668     -3.10029300049707
  O           0.14261527338716     -2.14536824909629      0.17371386595668
  H           3.19782845796693     -3.63925335360470     -0.01345638199505
  H           4.00577388347066     -2.58159036587637     -1.18178677515998
  H           1.13406811046134     -3.63222857698943     -1.53115608524078
  H           1.83386105776597     -3.84320445806105     -3.85381292377345
  H           3.49081323843932     -3.19098436308751     -3.43097930734305
  F           3.35816619489249     -0.17452217327505     -1.67506802535623
  F           1.28798070069086     -0.69081326506082     -1.89546318762900
  F           1.89511049870676      0.65760682562758     -0.34219882287999
  Cl          2.68240631775008     -3.11256015544949      2.67927124845636
  Cl          1.65893267778049     -0.39616327815704      2.82301852536028
  Cl         -0.15824536002593     -2.65963549537989      2.96012598046916
