18
Coordinates from ORCA-job R E -25.976314811150
  C          -1.49721434674602      0.15446404330688     -2.90392878007284
  C          -0.01301160868441     -2.23188668215403     -1.77759154444626
  C          -1.32593415135402     -2.02695195281648     -1.74199461511675
  C          -2.04356302768548     -0.88925908196852     -2.27757672794114
  C          -0.70269188335484      1.40920863480953      0.08031988545374
  C          -0.08398882625061      0.35811706531129      0.58824921665552
  H          -1.95557158852936     -2.76997042069407     -1.26858976951844
  H          -3.11956124335732     -0.90337172194418     -2.14341885614047
  O          -2.17523386584889      1.21602149959881     -3.39391505571311
  H           0.42738715669404     -3.11286565169574     -1.34510966299176
  H          -0.43841793185123      0.25129022135735     -3.08360171476837
  H           0.66947985780902     -1.53504869863211     -2.23073178611495
  H          -1.76888592611337      1.50654676455413      0.14003363296479
  H          -0.60121623628148     -0.45114932378619      1.08124293991000
  H          -0.16779999734176      2.20460831561999     -0.41222606259279
  O           1.25102079883938      0.14021605114876      0.56868968122089
  H          -3.12001272284365      1.11086407418788     -3.21998722906946
  H           1.68795554290001      0.87133686379670      0.11266644828142
