16
Coordinates from ORCA-job NEB_product E -25.513938583010
  C           1.78220268716258     -0.85138967067381      1.81169861190592
  C           1.27378400585519      0.37159946888083      1.06172800570849
  N           1.51864915802098     -2.10032690222954      1.13801681056759
  H           2.86540371419897     -0.74196201013617      1.95012793128493
  H           1.53508782431266      1.33798697660741      1.53447621096920
  C           1.11777455660944     -0.82930732572105      3.19869465911729
  C          -0.36512290161115     -0.86972639487145      3.13244879042743
  C          -1.14297559987831      0.04548507931296      3.68206238197217
  O           0.63113705950319      0.31351136568582      0.05318790519991
  I           1.82202400436396     -2.56679143388670      4.30861125913485
  H           1.45988065767811      0.03676345155577      3.76659846067026
  H          -0.78691923142888     -1.71542003062704      2.60810197180688
  H          -0.73989301939799      0.88654228310510      4.22337598599833
  H          -2.21514028091345     -0.00826905343448      3.61241850224625
  H           2.17218740366582     -2.25355261315242      0.37978709990022
  H           0.58531996185887     -2.09284319041523      0.73786541309028
