24
Coordinates from ORCA-job NEB E -53.445829311390
  C           0.27514516765417      0.58418356110349      0.49392774413626
  C          -1.13366979830804      0.51176248276467      0.60135747844905
  C           0.83597733302499      1.84308299726650     -0.12136678773168
  H           0.87946450344235      0.30316911594928      1.35026139429832
  O          -1.75028807700879     -0.18286147814470      1.58618792781343
  C           0.50026234881407     -0.87397162756172     -0.80051215359824
  C          -0.32941982328804     -0.52038532805875     -1.86868283317853
  C          -1.71604422524793     -0.39889806080922     -1.59871733076623
  O          -1.85942216765957      0.76782652009460     -0.41889240699806
  C           1.98105758018111     -1.04205353406758     -1.04662573430544
  H           0.14441252072297     -1.64713397828795     -0.12378863732016
  H           0.09299889254071      0.05004338230446     -2.68099009089302
  H          -2.19305821018745     -1.21811411072919     -1.06828112930252
  H          -2.33094469716740      0.01404192770036     -2.38689112641951
  F           2.17116416031871      1.87033488707096     -0.07551078012378
  F           0.47630701231526      2.09537952331604     -1.37697285532152
  F           0.43267619722410      2.91401141152829      0.60379832334446
  C          -1.07441588748300     -0.43622800618838      2.80117345267899
  H          -0.58406243260535      0.46431898137413      3.17856849434291
  H          -0.33806229387141     -1.23714200277091      2.68974253643769
  H          -1.84366796463590     -0.75187680611754      3.50367540133441
  F           2.49576154257304     -0.07789182499883     -1.83196990148221
  F           2.67464446330557     -1.01976864783802      0.12071498282932
  H           2.19318385534581     -2.01182938489999     -1.53020596822395
