24
Coordinates from ORCA-job NEB_product E -53.502863421120
  C           2.35842344534144     -2.20263205803429     -0.87262069422520
  C           0.95021505340610     -2.82134236044655     -0.65242719376964
  C           2.17059687771660     -0.68954424035018     -0.90501284540279
  H           3.05273148194362     -2.41947222113577     -0.05739413876887
  O           0.61175518209792     -3.24861364375772      0.55074534267220
  C           2.92273401179970     -2.73107456440833     -2.20870450727312
  C           4.05947849230984     -1.89777418269926     -2.73361055481206
  C           3.99984088842990     -1.22295601272373     -3.86490435473969
  O           0.17631078932427     -2.88427542952200     -1.56344646462813
  C           3.41292766149258     -4.16513951009352     -1.98893144130142
  H           2.10244018374485     -2.75999316948007     -2.93465173517633
  H           4.94694413904529     -1.88188199507604     -2.11598400050198
  H           3.11538111090974     -1.22254070423327     -4.47984694315983
  H           4.82954751727260     -0.63267704904496     -4.21117457706984
  F           3.33683744721901     -0.02916362242755     -0.82071804889270
  F           1.55463175110464     -0.24936234165502     -1.99815539866414
  F           1.44714613012784     -0.27447956893727      0.15111475505889
  C           1.47775035956544     -3.23088671767022      1.67355890742594
  H           1.78605193819692     -2.21426974085648      1.92718687786101
  H           2.34910808578015     -3.87046965383176      1.51337410245553
  H           0.88547421394442     -3.63803795016782      2.49112193778166
  F           4.40002815342242     -4.19584007413604     -1.05558748779813
  F           2.43353012952061     -4.95862586739726     -1.49765518817165
  H           3.80211495628411     -4.62614732191487     -2.90747634889969
