24
Coordinates from ORCA-job NEB_reactant E -53.481389344220
  C           1.49662922133413      0.01157083537742     -0.20267997461458
  C           1.72478482038221     -1.26089338681712      0.18118923381212
  C           1.86381473333584      0.73273469425657     -1.43521626735842
  H           0.94701618579734      0.61475995125818      0.49982003877809
  O           1.23437448085051     -1.59893544155005      1.38440139447819
  C           3.54223870263298     -4.03718777963915     -3.22582340241210
  C           3.54936657877632     -3.50503623264927     -2.01594614526787
  C           2.97733017824515     -2.16336556871958     -1.68785044799316
  O           2.35555385639244     -2.27703866353790     -0.41409158091142
  C           4.15158531556950     -5.36815453130047     -3.54790467783178
  H           3.12359180719310     -3.52824090818114     -4.08135221050019
  H           3.98359436369622     -4.03551771530287     -1.18016348137865
  H           2.25625681632385     -1.85509967714357     -2.44909762550256
  H           3.79281578574211     -1.43056269338327     -1.63970309273957
  F           3.19615729544549      0.79769689993856     -1.68458534892498
  F           1.33130729056539      0.21807829529693     -2.57473405922113
  F           1.44424409314256      2.00127690092951     -1.38481721889475
  C           1.45271613302375     -2.92016171618078      1.85402417459047
  H           0.97428050013160     -2.95604705650895      2.82994608297562
  H           2.51910929753520     -3.13273483024937      1.95280456713459
  H           0.99912596526267     -3.65625693950455      1.18717383294191
  F           5.14222242607684     -5.23084756861808     -4.46829744819358
  F           4.71792188737552     -5.95003236212835     -2.46558961982459
  H           3.41876226516928     -6.08040450564267     -3.96560672314162
