20
Coordinates from ORCA-job NEB_product E -37.931813224550
  C           1.51830345969336     -1.75942971537524      0.85510089156195
  C           1.03111316532972     -0.43605599750256      1.44272848892182
  C           1.06381408391416     -1.83119632888111     -0.59789634442245
  H           2.61076345271491     -1.81990288854268      0.88145453726437
  N           1.82942662740752      0.06368375215744      2.40778019647738
  C           0.95585750265869     -2.93803435067170      1.71583327071722
  C          -0.51063836116518     -3.13636895496686      1.44772964854494
  C          -1.47064475673090     -2.61115013511953      2.18353610988012
  O          -0.00252325509795      0.08944436989595      1.10284113296192
  O           1.71201707725713     -4.10143166479503      1.52617951701631
  H           1.10617010332222     -2.67367608952479      2.76923472670846
  H          -0.74089763735247     -3.75466510457790      0.58995150282412
  H          -1.25793883672683     -1.99717354634256      3.04229858538988
  H          -2.50965880999404     -2.76386097144389      1.95002420938671
  F           1.86183345506157     -1.05688866206287     -1.37073889207821
  F           1.17771024790056     -3.08875791431121     -1.10365883912167
  H           0.02517417491959     -1.49721162968386     -0.72944718571750
  H           1.56742748736067      0.93100299141054      2.84709678132511
  H           2.70184416368372     -0.36281471480637      2.66335853015224
  H           1.56524665584355     -4.43621244485578      0.63209313220729
