19
Coordinates from ORCA-job TS E -33.667431349940
  C          -0.29487873815488      0.37307942311082     -1.01730681649292
  C           1.15972647449063     -1.71915063303223      0.28767187103842
  C          -0.14460671442576     -1.85089180612877     -0.05683030376207
  C          -0.86330447253664     -0.81888738754359     -0.70242735446587
  C           0.32528410224032      1.05216445095266      1.17851116952211
  C           0.97165432773196      0.02300838509667      1.76391190119208
  H          -0.72069941495474     -2.67455579864849      0.33972432130877
  H          -1.93878026596285     -0.91426592531516     -0.76182363223943
  C          -1.12481611004972      1.49090272160770     -1.55098889236341
  H           1.64082955693859     -2.47517099050999      0.88609597991068
  H           0.75909265094720      0.49320777767337     -1.19509275714468
  H           1.81966590266533     -1.06359838060488     -0.24962373669850
  H          -0.72436788367730      1.21631981271533      1.35057246793803
  H           0.45236162831845     -0.63957580195989      2.43440001285069
  H           0.86539055345573      1.86021822128374      0.71568204841279
  H           2.04697352130281      0.00271421513218      1.81192484036110
  F          -1.41410251506753      1.34707676060491     -2.86393014691321
  F          -2.30799863706985      1.61742151642221     -0.92775487031788
  F          -0.50742396619173      2.67998343914341     -1.44271610213670
