21
Coordinates from ORCA-job NEB_reactant E -45.525977773860
  C           2.01062019690518      0.24104489668045     -0.67205317914331
  C           1.40960886157857     -0.68284196496033     -1.41869794568010
  O           2.43651145455542      1.47437208299770     -1.10690647050637
  H           2.16120939557606      0.02056362291771      0.37445722670159
  C           0.92786445047449     -1.98141199650635     -0.81961938808599
  C           4.10489230012726      1.03594040740769     -3.60752059339059
  C           3.21303047907562      0.05940613088991     -3.64343399041709
  C           1.73367603290804      0.28755686796523     -3.57584340161087
  O           1.09390538233276     -0.67022079664160     -2.75679503264034
  C           5.57847049776701      0.86659345559696     -3.63389937674993
  H           3.79241212771057      2.06765670145477     -3.52798606949282
  H           3.51338309815116     -0.97736361361752     -3.70239310532034
  H           1.29409471313086      0.12905187359628     -4.56696710896690
  H           1.51436771583830      1.30503009331450     -3.23998260190664
  H           3.02086633309829      1.85735175548530     -0.44588019184984
  F           1.01444767349681     -1.98493833236104      0.54483009438171
  H           1.52990113100282     -2.82306320219672     -1.18271732277177
  H          -0.12238205287930     -2.14553245381771     -1.08458004657135
  Cl          6.27683132083101      1.83423472441057     -4.96757168942939
  Cl          6.25513304311769      1.48563265919422     -2.09582005773573
  Cl          6.10825584520137     -0.80796291181000     -3.83011974881393
