21
Coordinates from ORCA-job NEB_product E -45.528328822190
  C           3.22579472479823     -0.28401231028532     -1.31251002176746
  C           1.74601412897905     -0.65296252949654     -1.18393715917372
  O           3.56360305718068      0.66044900160220     -0.35138547872181
  H           3.86092389823012     -1.16246477090572     -1.15733443424118
  C           1.39148448824891     -2.05167589453944     -1.64578031449655
  C           3.42091592991726      0.23811638385720     -2.77767745698986
  C           2.88249708391779      1.63617460959271     -2.90095036166290
  C           1.75516157589551      1.92502245752324     -3.52141409544359
  O           0.95992848930765      0.13459287113444     -0.73470671020155
  C           4.89000196529426      0.18391523205191     -3.19159493011581
  H           2.87743139323750     -0.42185569027407     -3.46115676294076
  H           3.47089528752481      2.40114112462527     -2.41599085037474
  H           1.15615790259220      1.17083458614681     -4.00476530789643
  H           1.38372919409178      2.93314063641686     -3.57049067810127
  H           2.78093147997634      1.21090467259089     -0.18681556554375
  F           0.05894416468647     -2.17156280815462     -1.90878965417902
  H           1.63189701882394     -2.75585419334386     -0.83820513647737
  H           1.93868862388360     -2.33440325552227     -2.55099083863488
  Cl          5.05060277054126      0.82514443125655     -4.84798799847946
  Cl          5.93698113452287      1.11570210566220     -2.11644833615901
  Cl          5.45851568834978     -1.50684665993845     -3.21096790839887
