19
Coordinates from ORCA-job NEB_product E -37.436924059830
  C           1.73038688809285     -1.74636645715811     -0.86435899652131
  C           1.17039380458345     -1.78878847035647      0.57412663299082
  C           1.45145866085227     -0.36216533093353     -1.45921190300795
  H           2.81859242316396     -1.86491894715748     -0.81195200857947
  N           1.77566594708120     -0.93024784453390      1.42229180262895
  C           1.12945458571491     -2.90817052952064     -1.67173309342196
  C          -0.17192598334660     -2.60963476024753     -2.33426528215694
  C          -1.30934721099439     -3.14654644396278     -1.93515805506480
  O           0.28698906109097     -2.53200014429457      0.91521859271732
  Br          2.43611574630543     -3.49912035091298     -3.03774418881592
  H           1.02123946046932     -3.76245771571063     -0.99893799143838
  H          -0.13493426542693     -1.93156534170433     -3.17556289865304
  H          -1.35314242658980     -3.81808676215512     -1.09411827352528
  H          -2.24052622648015     -2.91061427069720     -2.41927441492324
  F           1.74131035039679     -0.31036741119632     -2.77628448486564
  F           0.14946615787549     -0.01441154810065     -1.33843138916458
  H           2.04198246093293      0.42923993107732     -0.96756310712964
  H           1.45342891335209     -0.90700268118235      2.37642265972302
  H           2.55449165292621     -0.34977492125274      1.16973639920805
