24
Coordinates from ORCA-job R E -31.180751272860
  C          -1.20824289915252     -0.08690805235301     -2.86499876790523
  C          -0.81214357039590     -2.89125079250355     -1.87420687177462
  C          -1.97631996309862     -2.25886926785570     -1.98697790337301
  C          -2.17612709010655     -0.90214920846117     -2.45828635301465
  C          -0.85056677235698      1.26458078900659      0.31067083563723
  C          -0.02720216496730      0.24124349694538      0.10921807393668
  H          -2.88478138827646     -2.77411190663989     -1.70322488780348
  H          -3.19897520021212     -0.55003902917455     -2.46356518843392
  Br         -1.55049216374328      1.67234100015895     -3.44148566164288
  H          -0.76027489804518     -3.90226929279351     -1.50845279059635
  H          -0.16239976692583     -0.33855601080169     -2.89010437819029
  H           0.12394202518980     -2.43133655754284     -2.13823882994334
  H          -1.78674601129665      1.10996193123846      0.81479852257517
  H          -0.29812426258950     -0.74222192749500      0.47348810744777
  H          -0.64723155302739      2.26670736112353     -0.01859004899603
  N           1.15366482197915      0.23767947290423     -0.60818341097968
  C           2.14780756957847     -0.73919087832014     -0.23146415165832
  C           1.70031633880575      1.50547223095501     -1.03183636055543
  H           1.66067902318861     -1.68058083064721      0.01789654454547
  H           2.74557999900177     -0.41746888246261      0.63247785728280
  H           2.82543200451677     -0.90754502912772     -1.07096340053287
  H           2.06344022344130      2.10934689189991     -0.19020412072528
  H           0.93735934758989      2.07185601270580     -1.56230074071454
  H           2.53149635090277      1.32168847924072     -1.71257607458519
