18
Coordinates from ORCA-job NEB_product E -30.377981396070
  C           3.09643882093761      1.54485754547030     -0.89670775343661
  C           1.70658514139125      2.00584749651960     -1.34239301749574
  O           3.07720382802970      0.20193344289764     -0.48370311786050
  H           3.78295383087658      1.67148823931348     -1.74925680956199
  N           0.76788118747074      1.05291237670391     -1.24892161102168
  C           3.58855920557709      2.46847639502076      0.24033079751960
  C           2.60781774656283      2.45727914836123      1.37828851724210
  C           1.83400200878084      3.47973732448143      1.68662228945716
  O           1.50189275650137      3.13390922629806     -1.73241394308661
  O           4.85378594240979      1.95288765480555      0.63087216105700
  H           3.68591006313381      3.48338824736534     -0.16655427924295
  H           2.56648042280187      1.52852860812868      1.93200137695980
  H           1.86707658680817      4.39892277929688      1.12621463511134
  H           1.12456252932740      3.43182295770605      2.49499524544840
  H           3.91194536082642      0.05586358459441     -0.01820120302865
  H          -0.17849425768088      1.25060164134829     -1.52497546002023
  H           1.02988473928724      0.13845629116144     -0.92173269174053
  H           5.19351408695817      2.48878704052697      1.35413486370011
