18
Coordinates from ORCA-job NEB_reactant E -30.347027782210
  C           1.69959529229088      0.10600583141364     -0.09007615641758
  C           1.54650840352927      1.19065299066837     -0.85729153149879
  O           1.71978617459653      0.10890601758342      1.30260222027981
  H           1.79536746217233     -0.85647089557800     -0.57087696741910
  N           1.53756331053715      1.08117422648930     -2.25608201062131
  C           4.19528691215593      4.07804971839637      0.69913167024376
  C           3.47727322902877      2.96616156573281      0.64685462785483
  C           1.98343571203185      2.93687248622647      0.73094818206872
  O           1.38988789284487      2.49419515047268     -0.48431810996972
  O           5.54443014365299      4.15715297270305      0.62198041297299
  H           3.75273819916813      5.05398437493873      0.83621691037016
  H           3.95816961757161      2.00775833451222      0.49939295812290
  H           1.58772972113187      3.94443859463458      0.87589237604680
  H           1.66186795975894      2.29311663473376      1.55621984886217
  H           2.17035672842692     -0.68512211912346      1.60321663636912
  H           1.15329059059309      1.91756471430755     -2.67407836284802
  H           1.09057377289817      0.24611359779263     -2.60471490947491
  H           5.91413887761069      3.27534580409591      0.48578220505818
