20
Coordinates from ORCA-job NEB E -37.108860806220
  C           0.74851726242257     -0.98491208394334     -0.01574598567928
  C          -0.33876358088472     -1.20601289673847      0.84001766175311
  Br          2.47339459271793     -0.79769340468335      0.79655322983834
  H           0.83006212855933     -1.60690749500180     -0.90064747064567
  C          -1.56026001310982     -1.90912337207143      0.27316204008186
  C           0.33900496918941      0.77009913495300     -0.67837719950848
  C           0.19451963656256      1.47461047236183      0.52024927676915
  C          -0.84955289869379      1.10338431118815      1.41741559384087
  O          -0.51580063437852     -0.41987469332441      1.86297849926357
  C           1.45069880832977      1.13319299055705     -1.62458771400796
  H          -0.57735438862011      0.49184267946291     -1.19168099721977
  H           1.06737596616039      1.96136920472993      0.93401901419961
  H          -1.83930339100167      0.98945163904184      0.98184837892136
  H          -0.87007560894111      1.61576749480328      2.37155390565485
  F          -2.25843811184309     -1.10977631368356     -0.59336672126950
  F          -1.20581734406109     -2.99673125346048     -0.44729954948917
  H          -2.25422357672475     -2.21790538759949      1.06744128209059
  H           1.66270275479249      0.32261704921699     -2.31792255700434
  H           2.36140206134726      1.38707538588350     -1.08766480099013
  H           1.14191136817694      1.99952653830785     -2.20794588659900
