20
Coordinates from ORCA-job NEB_product E -37.143442757950
  C           2.14773442491135      1.35942812029099     -2.26617162968020
  C           0.83583654879506      0.82523838583723     -2.78229416215404
  Br          2.04441776964817      0.85189558372223     -0.36010527816165
  H           3.00371568220148      0.81135070122551     -2.66366453171460
  C           0.78542975599948     -0.70894592423227     -2.97121239946888
  C           2.30659851310952      2.86802486265806     -2.43015803247855
  C           3.51344075531015      3.34682833150913     -1.67645680955778
  C           3.46902054482735      4.21581094942235     -0.68563210062434
  O          -0.14001117781785      1.49043023552764     -2.97605668774565
  C           2.45024269379635      3.18814499988038     -3.92125498647544
  H           1.40804448049509      3.35729349097207     -2.04049228337365
  H           4.45571162631032      2.92585810193606     -2.00308140984168
  H           2.53963385440030      4.64226874042930     -0.34553276621637
  H           4.35754533595293      4.53526488584851     -0.16966998805111
  F           0.07814824704162     -1.00976032668367     -4.07723404045495
  F           2.01748550798534     -1.24098338870340     -3.13786575660078
  H           0.30759013957691     -1.20148047013810     -2.10795404795489
  H           3.31409497903633      2.67759989698499     -4.34326270816926
  H           2.58671791926058      4.25877963809158     -4.04933826936172
  H           1.56080239915955      2.88705318542141     -4.46896211191445
