20
Coordinates from ORCA-job NEB_reactant E -37.140123532910
  C           2.70687848170140      0.27647748547609     -1.59340695783390
  C           1.46849634386877      0.75894364387320     -1.69249666184525
  Br          4.26073662888382      1.09805950996876     -0.91555507331390
  H           2.89755006437628     -0.73180777159909     -1.92285466825005
  C           0.42357291103680     -0.17235374735997     -2.28658516002203
  C           2.48061017419683      3.27045891041330     -3.36255569208114
  C           2.57643518328916      3.57182441475601     -2.07844752679578
  C           1.66559546373366      3.05834916003534     -1.00061299835639
  O           0.88521141393759      1.93349857155808     -1.38512913097746
  C           3.40317591209983      3.77941246848860     -4.41532472160624
  H           1.69914722509818      2.60721817703189     -3.71275806016756
  H           3.35208966559830      4.23356395679494     -1.72034630382343
  H           0.91546289923804      3.81755238320189     -0.75098286776764
  H           2.23487429995159      2.83762491671186     -0.09090159259592
  F           0.66358226180151     -0.38593664832903     -3.60409900733753
  F           0.45108977753801     -1.39167801199414     -1.70367566177142
  H          -0.58689577041200      0.24688829510540     -2.18266734112071
  H           3.90037568703252      2.94567527937334     -4.91004649348136
  H           4.15647510423989      4.43724769829011     -3.99018924643369
  H           2.84113627278984      4.32308130820343     -5.17376483441856
