20
Coordinates from ORCA-job NEB E -49.775914321220
  C           0.87043165140807      0.48421727302743      0.20757708757971
  C           0.00462173562611     -0.19261053053025      1.09268905381549
  C           0.72592251681776      2.00010524473383      0.12082588971902
  H           1.92747519743385      0.23315119217979      0.28394495771326
  C           0.47874005134322     -1.51316501514998      1.67460066643071
  C           0.30706713494625     -0.22445744486184     -1.43648278753952
  C          -1.07443012967614      0.00644232765972     -1.44203992442427
  C          -1.86037098528273     -0.57291570177934     -0.38960048410268
  O          -1.28741512110349     -0.02215715841130      0.97052676074463
  Br          1.33694553324533      0.56428934669921     -2.85145228975108
  H           0.66664519221861     -1.23483922881222     -1.27247127082405
  H          -1.46259009792215      0.86654044374282     -1.96621518474677
  H          -1.75998260725194     -1.65017167944071     -0.26403812145019
  H          -2.89742029018618     -0.25656641993453     -0.36481357327576
  F           1.75357027778865      2.53668144877978     -0.56767820529773
  F          -0.40201263121658      2.41951370843912     -0.48138423483649
  H           0.74351646920736      2.43790235152268      1.13267430246985
  F          -0.27570642127614     -1.92311791086130      2.69019229624361
  F           0.45972313523689     -2.51761340371042      0.75762917021179
  F           1.74526938864326     -1.44122884329251      2.10551589132047
