21
Coordinates from ORCA-job NEB_product E -32.954411449680
  C           2.84339095745881      0.90682825380991      0.69526056600293
  C           1.55090850613804      1.04271830566035     -0.07107185375896
  C           2.73681702569385     -0.30704579681526      1.47358778669187
  H           3.70329224148948      0.83336748035146      0.02272233246765
  I           1.85120711190122      1.32618209747129     -2.20587657094872
  C           2.98522875663285      2.16870778271365      1.59747229014734
  C           2.64810040607758      3.38289989107962      0.77595898026568
  C           1.61046906059406      4.16593478552318      1.00058633684639
  O           0.45624874085304      1.02669164842232      0.36265422803345
  C           4.40814984624100      2.31049087555595      2.15144617033484
  H           2.27339301767026      2.08017555124358      2.42471732224476
  H           3.33472655878055      3.59589965625897     -0.03392615767703
  H           1.40986789543875      5.02994217820263      0.39104635889866
  H           0.91431984959500      3.97209380635568      1.80025137078996
  N           2.61321243004705     -1.27791004267942      2.06234423054347
  C           4.80869882117227      1.21472128075351      3.13025887684383
  H           4.45749923420572      3.27717536648013      2.65888174933090
  H           5.11821948390556      2.34018351749022      1.32084508326377
  H           4.07881532407583      1.12839025140147      3.93186804823766
  H           5.77406155670720      1.45097528284988      3.57128482909875
  H           4.89027317532188      0.24907782787086      2.63798802234281
