21
Coordinates from ORCA-job NEB_reactant E -32.943583920280
  C           1.68608597283039      0.14749525749645      0.16334885126991
  C           1.52255639701840      1.15607574965041     -0.70433671661484
  C           1.65150670519576      0.23756780378141      1.56060242931829
  H           1.83098851841910     -0.85459165343147     -0.21337704537694
  I           1.53483979041617      0.73951609934224     -2.78141955693105
  C           3.44070871711322      2.86547823629908      2.30361289804900
  C           2.96701781993267      3.13725287084190      1.09966974818752
  C           1.51569943216888      3.07468684120543      0.72827263233276
  O           1.32573149442262      2.45267819750392     -0.54556478392721
  C           4.88353008204650      2.92031283264251      2.68058639390625
  H           2.76736734289855      2.55210829898428      3.09024091207533
  H           3.62439937860462      3.44294964446242      0.29575341735341
  H           1.11484124877207      4.08280758846974      0.57724727441686
  H           0.92785043566648      2.56554007374314      1.49735117078694
  N           1.62401376001628      0.23455629133859      2.70912141810433
  C           5.36860894402606      1.54185919400674      3.13007656834027
  H           5.00812870493938      3.62745064175382      3.50498567148608
  H           5.48149009956567      3.26986795377321      1.83698069864112
  H           4.76949194330293      1.18153929281766      3.96240565540463
  H           6.40894539532214      1.58862441448520      3.44206714261633
  H           5.28189781732209      0.82722437083329      2.31487522056101
