17
Coordinates from ORCA-job NEB E -39.971722108250
  C           0.97396809488567      0.17291990664430      0.50076271961312
  C           0.10193354509498     -0.61280173466006      1.27227758569388
  C           0.83474729872127      1.66263188778385      0.62809472277482
  H           2.02578214274160     -0.10670497738758      0.51980047567894
  I           0.87363798722710     -2.54029801328562      1.87842189464182
  C           0.37572324258801     -0.51148229749580     -1.26792308831902
  C          -1.00758792486918     -0.31304957670274     -1.24177437770897
  C          -1.77406757940028     -0.99265737261338     -0.26975462041970
  O          -1.14743262898816     -0.48310561725401      1.22136550512532
  Cl          1.29742343678643      0.27819336839170     -2.51225105005350
  H           0.76551362927658     -1.50912214144573     -1.08584965214113
  H          -1.41766413885339      0.56516395811199     -1.71574795015662
  H          -1.59202759869677     -2.05448694324286     -0.13136344048900
  H          -2.81609707018985     -0.71561794756493     -0.18328373879074
  Br          1.38686058343903      2.11170546898922      2.49816116931926
  Br          2.05685384757166      2.65459300589501     -0.51287856819083
  Br         -0.93756686733469      2.39411902583665      0.40194241342235
