17
Coordinates from ORCA-job NEB_product E -40.014080109190
  C           1.64870763306484     -0.52388936377054     -1.46272510860176
  C           0.95989503669568     -1.18289830925762     -0.28672253340765
  C           1.33243067033664      0.96621517115065     -1.47264023910814
  H           2.73376395918729     -0.62116667951805     -1.33017062990878
  I           2.00219316380795     -2.94980675698703      0.39324788760561
  C           1.28199809812465     -1.33824930678682     -2.73324044150444
  C           0.02350868457789     -0.93617564781621     -3.42779291589594
  C          -1.07892703293557     -1.66281020066621     -3.38734419506437
  O          -0.04513914485837     -0.85591032658808      0.23514249524111
  Cl          2.65209024834579     -1.25846869196393     -3.90634655982669
  H           1.22241064121504     -2.39199697970214     -2.44100083047042
  H           0.07217013037835     -0.03210864101748     -4.01775533028307
  H          -1.14078182897485     -2.57949096333713     -2.82378951153018
  H          -1.96924035632565     -1.35614058882986     -3.90605071844825
  Br          2.08448157838672      1.73425677207552      0.18151976224588
  Br          2.19101239740381      1.87126738981954     -2.96336696759091
  Br         -0.55277387843023      1.42247312319538     -1.50696416345201
