22
Coordinates from ORCA-job NEB_product E -41.726053267730
  C           2.59918200994395     -1.16266578753861      0.78320118024858
  C           1.23517780652993     -0.96711248880120      1.47392056325341
  C           2.49804466744034     -0.79784755698156     -0.69535454235357
  H           3.28920437688789     -0.44200457842319      1.24159858267289
  O           1.14630970708294     -1.49139733523455      2.68603442351453
  C           3.19431820811289     -2.57104825645472      0.99590366064268
  C           2.23825625627386     -3.66381301548627      0.59750362667070
  C           2.54581735090638     -4.61821881308252     -0.25969761374142
  O           0.34330904226306     -0.35217317914649      0.96528095308219
  O           3.52901597870014     -2.64200452187912      2.38624814019571
  H           4.11838147001556     -2.65747476446580      0.40291920663030
  H           1.26918966667716     -3.63458387888253      1.07636694513523
  H           1.84239454290139     -5.38781567978547     -0.52422886356311
  H           3.50510032079395     -4.65553963899183     -0.74971720243190
  F           3.73939025169329     -0.66950112675979     -1.23062840822245
  F           1.88306618874169     -1.75703770600343     -1.41903194764647
  H           1.95345589743566      0.14482588110387     -0.85046735769931
  H           1.96663325931202     -1.97484991210256      2.93083858491678
  C           4.25847384298805     -3.79375741916955      2.74612830577720
  H           5.20170280753174     -3.84248803323490      2.19322603612176
  H           3.68451193212253     -4.70541618159432      2.55548909375730
  H           4.46306441564556     -3.70127600708544      3.81046663303896
