21
Coordinates from ORCA-job NEB E -33.644435007750
  C           0.71738246583703     -0.91153749563188     -0.63955209867443
  C          -0.34436298679276      0.01092993341453     -0.44800744503660
  C           0.42062885498359     -2.30215142187738     -0.55368806070859
  H           1.43231062705245     -0.68944949580771     -1.42777247834941
  C          -0.27720266273546      1.38070905178922     -1.07374550109420
  C           1.66281255820949     -0.65955848468247      0.99856437232330
  C           0.69425475868210     -0.95866493271299      1.96798283325208
  C          -0.44572502549557     -0.13002720785007      2.02279814166819
  O          -1.17874062376459     -0.19599872309274      0.50951969992169
  Cl          3.05604224759463     -1.70536681435592      0.88182207823056
  H           1.95558588835011      0.37597686524171      0.85248368463754
  H           0.60641086428500     -1.98416526212741      2.29442261285628
  H          -0.28178355962501      0.94321769549169      2.05057527905121
  H          -1.25328901147895     -0.45260116185302      2.66561475762198
  N           0.17099532910720     -3.41747173624926     -0.50885696048723
  C          -1.60127547038425      1.72625572518324     -1.75637045809129
  H           0.54236510855376      1.43297356075356     -1.79099124347679
  H          -0.09280312309372      2.11125798896344     -0.27727047055032
  H          -1.77895224409250      1.05880052162375     -2.59610429380085
  H          -1.58438501628712      2.74997844605031     -2.12134879613532
  H          -2.42026897890540      1.61689294772939     -1.05007565315781
