21
Coordinates from ORCA-job NEB_product E -33.689386608650
  C           2.99834703201882      1.14723570729679      1.24466030483055
  C           1.81922914377126      2.13879197515530      1.11938367735525
  C           2.85504592493524      0.03196618872295      0.34198042723480
  H           3.90254822940082      1.70031677754212      0.95504330801680
  C           1.32145287881800      2.33476042582335     -0.28719278055562
  C           3.14731881144415      0.67568307687702      2.70001763684692
  C           2.04937565168696     -0.24258870806711      3.11804272985802
  C           1.27837568619532     -0.01758816146772      4.16550888985741
  O           1.37785212071016      2.70021216066171      2.08265358851088
  Cl          4.72552739685816     -0.18692592193401      2.86776956132767
  H           3.19739429209678      1.54887396896968      3.35461685460567
  H           1.92641721064928     -1.12604764725918      2.50579784906089
  H           1.39599269171134      0.86131971144700      4.77694948205923
  H           0.49248612334932     -0.69783194208486      4.44339991943633
  N           2.72707491082977     -0.85496973015627     -0.36721454822162
  C           0.33862908686892      3.49357100360144     -0.39236033977490
  H           0.83978477913879      1.39990053453699     -0.59080298273329
  H           2.17444218151693      2.48180534458696     -0.95423242320664
  H          -0.49923759741360      3.33585110643239      0.28138845611997
  H          -0.03655928320306      3.57962665692981     -1.40820499633030
  H           0.82310272861667      4.42683747238561     -0.11660461429800
