19
Coordinates from ORCA-job P E -25.862446634970
  C          -1.49872202526994      0.59744457180871     -1.94043577335927
  C          -0.58861188450060     -1.43196914101254     -0.31185624959282
  C          -2.05107543140203     -1.36209296025634     -0.61529022507373
  C          -2.48801025354754     -0.39361407102614     -1.40412906987534
  C          -0.63881283530186      1.10938050209965     -0.77041136794210
  C          -0.06149747921371     -0.03322654531663      0.09379038858313
  H          -2.70577318311374     -2.10365719111290     -0.18599571346168
  H          -3.52593821922596     -0.26174709482387     -1.66209007804746
  N          -2.18216488858189      1.72972701351883     -2.54189625431776
  H          -0.37651776253305     -2.14733745216123      0.48315316698455
  H          -0.82973350448652      0.07186862275520     -2.65416242846335
  H          -0.04960381266871     -1.75848231387788     -1.20818797414197
  H          -1.27918372268997      1.74857519287335     -0.16169321021508
  H          -0.32384711177009      0.14185021848691      1.14289027676698
  H           0.17123136491246      1.72831438691621     -1.16352539625177
  C           1.37827387890791     -0.03851179120813     -0.00057675119543
  H          -2.77235037456578      1.42217589576599     -3.30682998966888
  H          -1.51333664213507      2.39665474748846     -2.91112657206618
  N           2.51726388718608     -0.04605259091764     -0.10278677866182
