19
Coordinates from ORCA-job R E -25.785599367430
  C          -1.25028751559108     -0.06049239994653     -3.22917869870562
  C          -0.29655918586729     -2.61756949285945     -1.90891875526932
  C          -1.56108698325334     -2.24845331598347     -2.10749759731206
  C          -2.02829384721123     -1.03431918678258     -2.73146647220678
  C          -1.11190068052688      0.60161190818802     -0.14443065143469
  C           0.01079181165962     -0.07618880705263      0.07015706493639
  H          -2.34851598598407     -2.91305694474675     -1.77194239070286
  H          -3.10299400873258     -0.91496380252981     -2.79523435998662
  N          -1.72073915317769      1.12876555414814     -3.73411863014782
  H          -0.05641494407109     -3.55107519001674     -1.42980658748406
  H          -0.17321248246189     -0.12949696112508     -3.18976414824347
  H           0.54134846454049     -2.01760605372213     -2.21963581282559
  H          -2.03140666319938      0.32999855055052      0.34497777887770
  H           0.05787260903632     -0.92766646080285      0.73621327488779
  H          -1.14290490111951      1.44646582594258     -0.81141418545728
  C           1.21699511565232      0.25497629441735     -0.57839770956188
  H          -2.70061879550942      1.14614666868781     -3.97410915749688
  H          -1.12339784792869      1.61309275053947     -4.38378218844146
  N           2.19665499374538      0.51704106309413     -1.11447077342548
