17
Coordinates from ORCA-job NEB E -21.918068371670
  C           0.95611235646022     -0.16157785027118     -1.03531609669971
  C          -0.40160331915018     -0.42235389995098     -0.90499463836207
  H           1.64557047994321     -0.98171394416626     -0.90707379708631
  H           1.26875420258171      0.56707611696998     -1.77022729718826
  C          -1.43392011517633      0.54741949529392     -1.40939727317066
  C           1.25757109763230      0.64346728278987      0.71048821632771
  C           0.81802947164903     -0.34244561654634      1.57991913185925
  C          -0.55989619473671     -0.73515801556557      1.48153242142245
  O          -0.77565168830174     -1.28525125098710      0.02135080915113
  H           2.31443583289282      0.87108048846532      0.68745540426569
  H           0.63059794281143      1.51335150470409      0.56255128447271
  H           1.52372206911911     -1.08832929078106      1.91689709858604
  H          -1.28065579564203      0.08137009898074      1.53789107884403
  H          -0.85972855907319     -1.57446523823488      2.09972527898956
  H          -1.70391109674125      1.25085465537442     -0.61652820448382
  H          -2.33721347865189      0.01086251639395     -1.69145840080648
  H          -1.06221320561652      1.10581294753108     -2.26281501612125
