17
Coordinates from ORCA-job NEB_product E -21.967183516860
  C           3.02894986427588      1.83947505849322      0.62830481858304
  C           1.61931367476922      1.36448355766532      0.33710606851733
  H           3.72256180658799      1.03176159052704      0.38883716708477
  H           3.26398179069393      2.71199487106222      0.01725727279730
  C           0.59901836735386      2.46163314139869      0.17579531214094
  C           3.17317216480730      2.20284580686604      2.11687978732957
  C           2.80275213408260      1.04777970904016      2.99299481810160
  C           1.86122479980600      1.08456614933165      3.91578627840278
  O           1.34163340182377      0.19675793223827      0.24249811817693
  H           4.21629643103842      2.47653471592657      2.30088636698686
  H           2.55075706826679      3.06694262798518      2.35658978584812
  H           3.35922573263219      0.13762507366231      2.81515147315474
  H           1.28683869704801      1.97688313621738      4.10780503359450
  H           1.62347167462281      0.22826056927918      4.52254258467177
  H           0.67461472895226      3.17565474896358      0.99133503464356
  H          -0.40267381043840      2.04219066121213      0.14285390421621
  H           0.79406147367739      2.98991065013105     -0.75612382425003
