17
Coordinates from ORCA-job NEB E -42.492182043120
  C           1.10898409219915      0.23887586421191      0.24327251138295
  C           0.42954246727179     -0.28159991850185      1.34871136766149
  C           0.99581688888756      1.69945326838520     -0.08375761715813
  H           2.12645249105418     -0.11812753137494      0.10665440535832
  F           1.02403808145561     -1.40405144656625      1.87735290817478
  C           0.05392477763875     -0.84663084672293     -1.14330660985097
  C          -1.26443491463636     -0.56534805716116     -0.81720100502466
  C          -1.75672854690032     -0.98196605651052      0.43287135526093
  O          -0.78504965976970     -0.14098578731060      1.59619545217061
  F           0.52385730836537     -0.42977575325827     -2.32237759599882
  H           0.52558000956153     -1.78398874806859     -0.86025095003701
  H          -1.75737717027122      0.23167361926373     -1.35171416152991
  H          -1.51056711936399     -1.98081311117302      0.77364822145471
  H          -2.74473027805824     -0.65052545857479      0.71744252457580
  Cl          1.70652245330914      2.08440562770356     -1.66441701209009
  Cl         -0.64379806347599      2.34574695952796     -0.01249952928332
  Cl          1.96796718273273      2.58365737613058      1.15937573493331
