17
Coordinates from ORCA-job NEB_product E -42.536984342290
  C           1.61202273832756     -0.82098135167951     -1.26997741792972
  C           0.88983559805322     -1.01462585207019      0.04068577392036
  C           1.26432594012107      0.52996183844584     -1.89718251658105
  H           2.68976208028856     -0.81647258330021     -1.05350528389297
  F           1.41509007030647     -2.09414927783974      0.68385998063827
  C           1.37598852417411     -2.07286098159228     -2.17032995068838
  C           0.05353662553176     -2.09507404342368     -2.87526283714190
  C          -1.01645072034595     -2.68499467862517     -2.37755194875393
  O           0.00845831735221     -0.41790157250799      0.53438039897151
  F           2.39689949532430     -2.13446324854512     -3.08751206332494
  H           1.49584451610746     -2.96351001473932     -1.53757120668923
  H           0.04643971393356     -1.61306217114471     -3.84114061064331
  H          -1.00566748350229     -3.17527119349472     -1.41758795057546
  H          -1.95232577905446     -2.68778417629659     -2.90654286535521
  Cl         -0.47843921007332      0.74164265899504     -2.14078477245824
  Cl          1.82711813841396      1.81528969835900     -0.78547805027780
  Cl          2.09136143504179      0.74445694945936     -3.45169867921800
