24
Coordinates from ORCA-job NEB_product E -49.233650810860
  C           2.63177156088023      1.36174084377855     -0.13411561008109
  C           1.29159873075766      1.75922065140413     -0.69717926711019
  C           2.45850953456371      0.32476531401322      0.97817866281058
  H           3.22514272004726      0.90440807861316     -0.93513454277678
  C           1.31568663210174      2.50214425418468     -2.05785428635843
  C           3.46021474009452      2.58625092634001      0.35730692068765
  C           2.62589155131968      3.55696517967744      1.15046280737516
  C           2.82939522415140      3.81883701961611      2.42682358859112
  O           0.23834184218156      1.50812937983330     -0.18135785786917
  O           4.01003522323252      3.16841669272323     -0.80462805280461
  H           4.27321785024676      2.19568394517515      0.99477606619850
  H           1.85661062325421      4.06587464390775      0.58670738879825
  H           2.22065381025812      4.52571225382636      2.96254773299724
  H           3.59658679008646      3.31817537297438      2.99426008520168
  F           3.64732373200313     -0.27567092030275      1.22944841839564
  F           2.06679424011610      0.87373414313435      2.14479472710158
  H           1.73066831249228     -0.45794582612594      0.71410237996225
  F           1.52289455141457      3.82323099439249     -1.88288794416686
  F           2.29689752839185      2.03683437765484     -2.85734657141505
  H           0.35106969886702      2.37655524596787     -2.57696013406395
  C           4.95755715449430      4.17389972797688     -0.54282289096443
  H           5.31750099099067      4.50481607983511     -1.51404022259258
  H           5.79391818015814      3.77969896514588      0.04712814699141
  H           4.51141877789610      5.01852265625379     -0.00800954490794
