24
Coordinates from ORCA-job NEB_reactant E -49.236487538910
  C           1.77416796762390      0.58461148540106     -0.13352401759097
  C           1.02190153927454      1.67358143496432     -0.34248293926435
  C           2.77402388596108      0.27954200552932      0.93293686283055
  H           1.62113369559524     -0.22899274016982     -0.82526557130889
  C           0.03187872333500      1.59323170813272     -1.50105697705636
  C           4.27138807466597      3.92019778132788      0.58076659874437
  C           2.98414910577720      4.04159593039763      0.28086057054973
  C           1.88328783009163      3.44470303564168      1.09842688075854
  O           0.88268417741255      2.85617224751935      0.25813557651019
  O           5.23919205485073      4.50334076881543     -0.16198587039385
  H           4.60140135085467      3.36217036989169      1.45000747653323
  H           2.68151998928277      4.60356096577486     -0.58894626982227
  H           1.32473449408274      4.22934552274337      1.62134918607989
  H           2.26689070158296      2.74313394052854      1.83781308291539
  F           3.92600153658335      0.99916347685562      0.81891091942732
  F           2.30878663066900      0.54609965451487      2.18595070188496
  H           3.05854705567185     -0.78286966996765      0.91749583491771
  F           0.68527927286348      1.51639596130082     -2.68494093597174
  F          -0.72718351544838      0.47616263059618     -1.42447186602470
  H          -0.63285297924064      2.46802218296429     -1.52615932134302
  C           6.56254402637131      4.21217435856312      0.22719327711603
  H           7.20984087936601      4.74906608411767     -0.46356168494764
  H           6.76687864715732      3.13918161352090      0.15970468671357
  H           6.76020485561568      4.55200925103613      1.24924379874233
