18
Coordinates from ORCA-job NEB_product E -30.685504217750
  C           1.32253437400108      0.34503420246422     -1.51226819393217
  C           2.20351739132667     -0.83447609425839     -1.90410167983013
  C           1.88124167522527      1.02620343385724     -0.25768590525032
  H           0.34051368300592     -0.06842685304211     -1.24619450397625
  C           2.43700909004136     -1.74766250393913     -0.79329887713057
  C           1.17540793659819      1.31800075883381     -2.69311780380253
  C          -0.00086765806902      2.22793085650798     -2.52657824463577
  C          -1.06694884636807      2.20062415168139     -3.30341176071581
  O           2.64515186922282     -1.03522411587452     -3.00184590037724
  H           2.09462956649102      1.90394496142799     -2.77351824823148
  H           1.06492482522107      0.73666577129491     -3.61027236031574
  H           0.05935488386512      2.94005407012883     -1.71397934487627
  H          -1.15106311998881      1.50920063250521     -4.12583582956582
  H          -1.89593558742145      2.87181844341726     -3.15863392244966
  F           3.15220735934452      1.48238514618706     -0.49094695399745
  H           1.94160447346680      0.33409890834738      0.58927030340536
  H           1.27713155340068      1.89683072588645      0.01375056764942
  N           2.59758653063686     -2.46540249542559      0.08346865803244
