23
Coordinates from ORCA-job NEB E -51.623269552060
  C           0.01955119604745     -0.88074579181267      0.55782590363956
  C          -1.30003689739001     -0.51588593492334      0.22752373197707
  C           0.39395066492722     -0.86593934742610      2.02395980213350
  H           0.37670742015030     -1.77514191969548      0.05280988182640
  C          -1.96314104966967     -1.12344136468424     -1.01024062520202
  C           1.04725072925581      0.60079260786137     -0.12254756585540
  C           0.14636600991798      1.58960409931030     -0.54967254804079
  C          -0.85328516665817      1.95910525828991      0.38649520757043
  O          -1.78789882526912      0.62734686842956      0.58106675235040
  C           2.05472431601412      0.08330215550289     -1.10861169991005
  H           1.52280379810683      0.81187649173469      0.83286365127391
  H          -0.10909532532089      1.64339496477984     -1.60127931186570
  H          -1.58905784005565      2.68260622179349      0.05839585746208
  H          -0.51990795822674      2.13142000568693      1.40632199310315
  H           0.02369911148639      0.02578059042709      2.52229531050498
  H           1.46839845699615     -0.95273980626668      2.16499596321566
  H          -0.07046129919380     -1.73177288715137      2.49432749706268
  F          -3.25782927189362     -1.38044252087375     -0.79719577538069
  F          -1.90766728236850     -0.28669617834172     -2.06499922963988
  F          -1.39476039010575     -2.27339599028277     -1.39451230640119
  Br          3.26323449916190      1.56423765069248     -1.60743917882804
  Br          3.17718745746858     -1.30386787101094     -0.31463483385950
  Br          1.25926764661917     -0.62939730203949     -2.73774847713659
