22
Coordinates from ORCA-job NEB_reactant E -48.242204614170
  C           1.93735363886744      0.18209435768934     -0.19953164986617
  C           1.49165491184184     -0.00952870613619     -1.43793295213668
  C           2.28655232301404      1.41419426619982      0.56618982772870
  H           2.09023564728404     -0.72147453389244      0.37505298928563
  C           1.23118556488573     -1.42151364372169     -1.93813571728768
  C           3.12022706239135      3.92543627591752     -2.21729183600150
  C           2.73133792532413      2.65866680016779     -2.30175179655396
  C           1.31297435607639      2.20428993480206     -2.41953606956678
  O           1.16981412233431      0.80849615651167     -2.48654171466330
  N           4.51148186474855      4.26340903135394     -2.11128344689140
  H           2.46730424072215      4.78473981599535     -2.22159533618154
  H           3.48784907527787      1.88183588751197     -2.30289846474437
  H           0.90072438830425      2.55244340255360     -3.37457507487234
  H           0.69012265969981      2.62599359022826     -1.61878933011658
  H           2.11111669110883      2.34108618305013      0.03539007870014
  H           3.33990302950833      1.36799556328095      0.84351007296369
  H           1.71058304913030      1.42688204336543      1.49093901750710
  F          -0.04375747177251     -1.58421852647626     -2.31799325084238
  F           1.98984709703737     -1.71493332210554     -3.00334413522112
  F           1.47841266431961     -2.36563431773057     -1.02278111794799
  O           5.31689789459214      3.36207548924095     -2.04206141747489
  O           4.77807926530403      5.44436425219392     -2.09103867581659
