22
Coordinates from ORCA-job NEB_product E -48.246446792960
  C           2.69634566133500      0.99716133864536     -0.97439089618761
  C           1.38770418476611      0.30768404828240     -1.27572884461624
  C           2.75838517257562      1.36946665737077      0.50670084603374
  H           3.53444341771987      0.34220082468963     -1.23756772943714
  C           1.49195709462569     -0.77549256453891     -2.39455823990942
  C           2.77934264032168      2.24734506448915     -1.89098399009320
  C           1.73292556772757      3.27413187442935     -1.59348322454602
  C           0.67263612412073      3.45959159964893     -2.35690261450501
  O           0.33829770673628      0.52942777565434     -0.75229154024365
  N           4.15715598014394      2.82989432316116     -1.73951034812417
  H           2.71772775983863      1.93207907666553     -2.93964783758093
  H           1.89216410662869      3.86671038954104     -0.70532286763285
  H           0.50330001560432      2.88482126140222     -3.25325689053100
  H          -0.07486672744392      4.19249094372350     -2.11245490153584
  H           1.86513009134989      1.91426905313716      0.79957810738828
  H           3.63600445307446      1.97601813976269      0.71381210101074
  H           2.82061337711157      0.46628728432593      1.10828474527615
  F           0.32186627019926     -1.34173718350857     -2.66312553432230
  F           1.95689337052135     -0.24585063358257     -3.54025474468147
  F           2.34796742324860     -1.74311609930292     -2.03985068572360
  O           5.07797863417290      2.05650009597771     -1.79800948264718
  O           4.24032767562173      4.01951673002608     -1.59563542739128
