18
Coordinates from ORCA-job NEB_product E -37.794877922800
  C           1.52720833207040     -2.14752916603360     -0.53185195234439
  C           2.74056753517929     -1.29209561430417     -0.13773880150004
  I           0.06225660007872     -0.81791770790364     -1.37940778937216
  H           1.06907107859401     -2.55957468838767      0.37196179858108
  O           3.62447310381047     -1.89173527729292      0.65658357554995
  C           1.90167138763163     -3.27894610021665     -1.51793702741796
  C           3.23489427112842     -3.00841852974684     -2.17308923780033
  C           3.34709698889024     -2.39676409334168     -3.33592202312773
  O           2.88249355730136     -0.16462545542997     -0.49687387978693
  C           1.90066262157026     -4.62839327773968     -0.79460417332985
  H           1.13868277755263     -3.35653723368073     -2.29847888035504
  H           4.11037088404036     -3.33266482742299     -1.62737782014001
  H           2.48602403683606     -2.06745177892156     -3.89406226462788
  H           4.30863455874368     -2.19101489387579     -3.77085053311021
  H           3.43661859824679     -2.81963838539000      0.86222954240078
  F           2.35087609492498     -5.60926094121482     -1.59700896784581
  F           2.73762605579246     -4.60407363861257      0.28597977742327
  H           0.90597151760824     -4.92025839048474     -0.42235134319675
