17
Coordinates from ORCA-job NEB E -37.521122878380
  C           1.07025977631077      0.37545970639413     -0.18595236993007
  C           0.23676100806866      1.43128048109029      0.19023131037799
  C           0.95979523519042     -0.06647640410036     -1.63521119558639
  H           2.10103113362237      0.39465143739241      0.15669524726802
  Br          0.77686801976339      2.42348794609085      1.77506046281776
  C           0.19484020748474     -1.03701437204534      0.84768412569885
  C          -1.13992344016607     -0.93740182579721      0.45657838645473
  C          -1.82369576063130      0.27922664451702      0.73148815305532
  O          -1.00271360379912      1.44029526196856     -0.08546224030651
  Br          1.11798180696967     -2.67121804935585      0.48822035846390
  H           0.49431060697239     -0.65131796308187      1.81678160119706
  H          -1.50343240128577     -1.57348415554354     -0.33683464672424
  H          -1.73631235056142      0.67293193042271      1.74207691771784
  H          -2.82443532105670      0.37430303715162      0.32923648644529
  F           1.20244871964647      0.99468886470222     -2.44427941678041
  F           1.90216269334963     -0.97908654735018     -1.93510794799900
  H          -0.02594632987811     -0.47032599245546     -1.91120523217013
