17
Coordinates from ORCA-job NEB_product E -37.564287110250
  C           1.70801466292286     -1.39048508521855      1.16871459039180
  C           1.05663799567639     -0.05058193849645      1.39474515421487
  C           1.55024079104950     -1.76958806413322     -0.31733592444385
  H           2.78453238947418     -1.28438958069791      1.35410329204999
  Br          1.94805291923826      1.37529161762206      0.38817788833837
  C           1.11101088453000     -2.41728385682842      2.15121139184418
  C          -0.16400162762174     -3.04706081740802      1.70296931190259
  C          -1.31866204605404     -2.81697512443368      2.29950041428684
  O           0.14464088747640      0.21781153102819      2.08984490893050
  Br          2.46299100522166     -3.82509291242634      2.49554699321985
  H           0.97283825567521     -1.92570602679768      3.11808720597238
  H          -0.09095856078225     -3.72359640036884      0.86342361067744
  H          -1.40390922743821     -2.14865135413926      3.14060345977049
  H          -2.22707769290779     -3.27843095196798      1.95559432147259
  F           1.92208112466411     -3.04163456711459     -0.53799167098375
  F           0.25921001432529     -1.66943684524735     -0.70807642590060
  H           2.15035822455016     -1.12078962337196     -0.97441852174369
