21
Coordinates from ORCA-job NEB E -29.493288192550
  C          -0.07318641524135      0.30076900203382      0.26059577032262
  C           1.17238151978897     -0.34351225260362      0.03710857676949
  H          -1.02500643201613      0.63566306244767      0.81477144243523
  H          -0.28262395599760     -0.08465282962943      1.32094860655992
  C           1.73576855174432     -1.24995438019985      1.13077246900907
  C          -0.50592381189911      1.17945715600635     -0.94177182971404
  C          -1.73277385493014      0.64896222658678     -1.63914735461044
  C          -1.68957562175119      0.06481081910200     -2.82096625102074
  O           1.80774070143983     -0.20716155615599     -1.00796112766119
  C          -0.71817211676602      2.54015561913818     -0.50789295362185
  H           0.36110039236005      1.13215348434515     -1.61907968997940
  H          -2.67162108891495      0.76162386377658     -1.10810498432706
  H          -0.76144554276485     -0.05350999253157     -3.35440116430703
  H          -2.57328896351228     -0.32809752305227     -3.29443007865321
  C           0.95939168659541     -1.32863439625584      2.44011292833306
  H           2.75313539607328     -0.90386434533314      1.32534097845899
  H           1.82688627631960     -2.24756087916619      0.69442420136154
  H           0.88652652170516     -0.35508102926157      2.92927105512735
  H           1.49061371938825     -1.98271666407571      3.12898106886521
  H          -0.03290920539025     -1.76542627077250      2.30413608517954
  N          -0.92701775623098      3.58657688560114     -0.09270774852705
