21
Coordinates from ORCA-job NEB_reactant E -29.633472774490
  C           1.35838353408992     -0.10828564868348     -1.05237547892956
  C           1.89764527348938     -1.13414161017445     -1.69651534627294
  H           0.65367401422616      0.57333816783723     -1.49256676302249
  H           1.63012722579860      0.08518980086930     -0.03197394801931
  C           2.87542739722830     -2.08908128279715     -1.06819316517291
  C           0.18712590224900      1.57361532422724     -4.32796895004348
  C           1.05201554560597      0.59903039102717     -4.05073941577890
  C           0.65070121540480     -0.80047588339146     -3.70042572020419
  O           1.63846315593216     -1.50399732509809     -2.98893195049740
  C           0.60096017587194      2.86947271065197     -4.68953949951162
  H          -0.88397397726113      1.41765651597278     -4.29070542245911
  H           2.11796332968794      0.77951241563028     -4.09167368599922
  H           0.52185108974434     -1.37411322407155     -4.62771779895907
  H          -0.30409295419974     -0.80940648370230     -3.15497226558221
  C           2.16914114998013     -3.36768666397601     -0.61658065866051
  H           3.35576094031689     -1.60889839962097     -0.21621661591645
  H           3.63671643378281     -2.34159738559742     -1.80808774956314
  H           1.41071039020221     -3.13787598421614      0.12842757001882
  H           2.88501686372971     -4.06101169177746     -0.18208184159482
  H           1.68880367900533     -3.84998522887428     -1.46423626825314
  N           0.92437961511527      3.93004148576479     -4.98212502557838
