21
Coordinates from ORCA-job NEB_product E -29.645789460950
  C           1.35547483037858     -0.64934074512138     -2.22064102963821
  C           2.60886976924508     -1.27067004108538     -2.81498543963148
  H           1.55522037446441     -0.26494933594834     -1.21952870681512
  H           0.60445348850510     -1.44121471484006     -2.14236612716819
  C           3.57650756513112     -1.86094500332552     -1.81605071576960
  C           0.80209534864081      0.46343324059291     -3.13098135487695
  C          -0.59766175739401      0.85495591665799     -2.74097966579802
  C          -1.62978058545065      0.79306135776090     -3.55945332112942
  O           2.80717906032338     -1.29268618790315     -4.00241363120393
  C           1.65973718767798      1.62338436450323     -3.02202502644366
  H           0.82809426733274      0.11525090444876     -4.17028548954928
  H          -0.71150723632330      1.20200570980098     -1.72230570282184
  H          -1.52956871395969      0.45594683515171     -4.57834800205492
  H          -2.61940557718294      1.07752622410448     -3.24578273665812
  C           2.92778446475306     -2.88976399944450     -0.89140824026975
  H           3.98355172238825     -1.03743798748786     -1.22323456838880
  H           4.39673159267983     -2.32145228683341     -2.36940773725532
  H           2.16005427542978     -2.43886293828597     -0.26804195520705
  H           3.68245685167134     -3.32324813814575     -0.23997015171337
  H           2.47842984408427     -3.69170811279558     -1.47264774889450
  N           2.32868322760484      2.54121493819594     -2.89494264871248
