18
Coordinates from ORCA-job NEB_reactant E -32.895541482420
  C           2.06587439011196      0.08955320548046      0.70007498795089
  C           1.23013351750611     -0.47560131653684      1.55873137132505
  I           3.62831264083856     -0.79444914163081     -0.39419116194591
  H           1.96404099394372      1.13522452661803      0.47450751802273
  Br         -0.10150376363166      0.68424003060866      2.31832129871184
  C           3.46079180346331     -1.48123463519279      3.55539100795117
  C           3.32269450986581     -2.38185491832958      2.58772676625814
  C           1.99623243136768     -2.71961957161573      1.97325822139766
  O           1.02919551112305     -1.68143719979587      2.07970258128100
  O           4.58966408471572     -1.07903573768424      4.16825984902187
  H           2.61370970879362     -0.94336014033726      3.96277711313177
  H           4.15795343934148     -2.93216637327786      2.18716449883816
  H           1.52187049421217     -3.55580554721891      2.50014660896244
  H           2.12484680667687     -3.01131896261153      0.92485323970066
  C           5.80403316208336     -1.66226244696793      3.75215630197060
  H           6.58220272124659     -1.19138940227102      4.34934539865243
  H           5.98944980080241     -1.47161214047942      2.69065932346837
  H           5.80639774753924     -2.74157022875735      3.93141507530112
