18
Coordinates from ORCA-job NEB_product E -32.907120679420
  C           2.71875736810838     -0.01271397968883      1.70192336071129
  C           1.30945487170628     -0.36286472439556      1.40277263339476
  I           3.82118645653236      0.16340120162256     -0.13411743297522
  H           2.78076632519499      0.96004324407587      2.19281082423174
  Br          0.20171147965428     -0.19618522920775      3.02601396360745
  C           3.37844393113369     -1.07152491226517      2.60533911207192
  C           3.12394469221632     -2.45577042915547      2.06874950689020
  C           2.34254426942617     -3.33773328748602      2.66131327368977
  O           0.79985078330479     -0.71432141496887      0.40334766111753
  O           4.74411314609283     -0.73272020155330      2.63571780617208
  H           2.94586631152760     -0.98328047082857      3.61819848473331
  H           3.63130090653398     -2.68058749300961      1.14016941498741
  H           1.83885157049722     -3.12224921226627      3.59047879802777
  H           2.16745029409183     -4.31105611389428      2.23721528207284
  C           5.50726210131925     -1.49712994701208      3.53728388028108
  H           5.14832709612381     -1.36387747935256      4.56443296708225
  H           6.52645598184936     -1.12743813978436      3.45372854679205
  H           5.47911241468688     -2.56219141082974      3.28582191711178
