25
Coordinates from ORCA-job NEB E -42.395063118420
  C           0.41400116815024      1.17670564918781      0.35857691602475
  C          -0.69720221190791      1.38101111311288      1.21708012055416
  C           0.36933998427420      1.81447843676657     -0.97306481560362
  H           1.38910041570203      1.31134548986870      0.82392780675465
  N          -0.47037260008742      1.43539678788469      2.57220284488353
  C           0.23710113958497     -0.87959724404599      0.31586763243591
  C          -1.07883142460196     -1.05847890501243     -0.10216620072572
  C          -2.12479958252555     -0.58932061129674      0.70920996613873
  O          -1.88404949431791      1.14954054599902      0.81317472296400
  C           1.40433842196498     -1.46705674700768     -0.43925968447802
  H           0.39946961119498     -0.89814669630314      1.39116161834976
  H          -1.28760918764784     -1.23845433531368     -1.14370381345482
  H          -2.06004579303124     -0.76383000965989      1.77718584894686
  H          -3.12966907053538     -0.62290501719665      0.31428845280247
  Br          0.35726229068225      3.85344726425543     -0.69409658739284
  Br          1.98131221061018      1.50672743327801     -2.01975696148961
  Br         -1.15930120614655      1.45190701242954     -2.08333238845576
  H          -1.28369939440392      1.59355398669801      3.14546031498754
  H           0.38864898383781      1.83665053173476      2.90737717841435
  C           1.11477853592927     -1.88066551828976     -1.87724654720874
  H           1.71416104220303     -2.35671115683117      0.11914968168478
  H           2.25516301451038     -0.78354811091331     -0.41457062661904
  H           0.39874428080619     -2.69811468539051     -1.90230475691448
  H           2.03477718445513     -2.21498396204633     -2.34981310125989
  H           0.71738168130004     -1.05895125190813     -2.46534762133894
