25
Coordinates from ORCA-job NEB_reactant E -42.426947439380
  C           2.16037230388844     -0.47175507680181     -0.06146285553742
  C           1.62929176727388     -1.38618265091267      0.79230016197347
  C           1.67861508075801      0.01213804851311     -1.34112436823207
  H           3.07173350406293     -0.00365657523253      0.28184821047738
  N           2.20595558116797     -1.55140102516120      2.02679502273965
  C           2.56172594308080     -4.07187206449500     -0.33327837776725
  C           1.44917414257266     -3.80477680429372     -0.99488399281737
  C           0.31452900424706     -2.94774430696045     -0.51982311103109
  O           0.56417238007762     -2.19683053283927      0.66485342513286
  C           3.70363431985322     -4.90181432500708     -0.83155930951270
  H           2.71520778257706     -3.67178100000037      0.66060562198660
  H           1.27663636677026     -4.20441179069204     -1.98255583992626
  H          -0.53896453297287     -3.57626037035515     -0.24121558959616
  H          -0.01695914438105     -2.30365270656859     -1.34042992382435
  Br          2.54744914300701      1.70449207098782     -1.78990126527614
  Br          2.09464328623244     -1.20560913449966     -2.93610104972907
  Br         -0.26383741100956      0.35894103491044     -1.39873993797825
  H           1.66115688572766     -2.09743329067878      2.67535901923468
  H           2.72514324426499     -0.78539826431770      2.42076837944753
  C           3.55089149117408     -5.42509538646939     -2.25281989638452
  H           3.83872060141527     -5.74234110588374     -0.14292867316238
  H           4.61155273816390     -4.29368371625509     -0.76623470977966
  H           2.68802633101325     -6.08172374143267     -2.33263203124568
  H           4.43628294666650     -5.98942096600975     -2.53574514765383
  H           3.43124624436848     -4.60102631954473     -2.95199376153798
