21
Coordinates from ORCA-job NEB_product E -43.467241631750
  C           1.86377168799466     -1.54151090349788      1.22171106385894
  C           3.21143284994643     -1.78641640382431      1.87274414165656
  C           1.88695832816111     -1.24919220623363     -0.26752935299718
  H           1.45542586705890     -0.65272078812857      1.72430667299400
  Br          4.46783619386818     -2.86029908517388      0.88701591649746
  C           0.98646917918760     -2.75622922649584      1.65763479451035
  C          -0.42298269652137     -2.67054017804685      1.13476711505400
  C          -1.43003960970305     -2.19129805417130      1.83993089452280
  O           3.49148991648066     -1.41451617473941      2.96245448616042
  O           1.65885504591269     -3.91394295481665      1.22289258445578
  H           0.95969329139783     -2.73050805961664      2.76315421040935
  H          -0.56778081025930     -3.06103175329480      0.13683055268161
  H          -1.29621222758611     -1.81444377051908      2.84107671182241
  H          -2.42551833460218     -2.14287888691531      1.43631733062167
  Br          0.26254220490391     -0.27291108286415     -0.76361969702332
  Br          3.37065214304525     -0.02780706362388     -0.66757615345687
  Br          2.00696451260093     -2.77506856002489     -1.43674162345460
  C           1.14439807879976     -5.11512399513117      1.74588698598418
  H           1.76486484888868     -5.90690068544330      1.33328072464540
  H           0.10238096048127     -5.26817921952815      1.44979945809360
  H           1.21089856994414     -5.12148094791028      2.83996318296344
