21
Coordinates from ORCA-job NEB_reactant E -43.466881112430
  C           1.63286969525796     -1.17720320196821      0.26112929405716
  C           2.00602332366122     -0.81683813185039      1.49491622988707
  C           2.43644312947149     -0.99803777981522     -0.95910592998671
  H           0.67630138534589     -1.66102556932372      0.13036452565660
  Br          3.65916143152858      0.02010364708717      1.87130831360236
  C           1.17798071369414     -3.81526411937099      2.39400006342496
  C           0.11278709594620     -3.04537765743782      2.18812156406363
  C           0.06445059202218     -1.60531497366789      2.61634765156075
  O           1.33646291192781     -0.96474419173557      2.63346448877295
  O           1.35959793908755     -5.10179803204802      2.05933133167125
  H           2.06732948212726     -3.43116966886840      2.87805762965734
  H          -0.78437142566093     -3.41350888428555      1.71768686844171
  H          -0.28210356801625     -1.51171902154753      3.65107154402238
  H          -0.62146497166218     -1.04037350066801      1.97200122894161
  Br          1.46936276778488     -1.70037683026551     -2.49621663876926
  Br          2.83787593859449      0.89928603869875     -1.34647946714617
  Br          4.16201195602505     -1.96471222408130     -0.87888216032804
  C           0.30163828892699     -5.77347968337301      1.41189475882587
  H           0.65408609129173     -6.78774281156544      1.23716339454183
  H           0.06086872550126     -5.30103184295187      0.45467625344904
  H          -0.59381150285532     -5.79847156096147      2.03974905565364
