27
Coordinates from ORCA-job P E -37.958669918920
  C          -1.64744264939310      0.14706026541006     -2.86616855087395
  C          -0.27065473046351     -1.75320655104635     -1.43814200215790
  C          -1.74165354032470     -1.93281231504129     -1.63302173410510
  C          -2.41631679706456     -1.00814448846054     -2.29617884458387
  C          -0.65439035393968      0.72247712204242     -1.82789355664512
  C           0.00108008648362     -0.33432908436174     -0.90957415491063
  H          -2.21969272403033     -2.80401269640786     -1.21327680617352
  H          -3.47854239368494     -1.07783688568937     -2.48055662493676
  C          -2.54866262776319      1.27540480433069     -3.34087435607674
  H           0.10556365140751     -2.49860795415016     -0.74043170907183
  H          -1.07352359421127     -0.20333222559887     -3.73148981546968
  H           0.24805526818873     -1.87056724909526     -2.39341350284641
  H          -1.17196440462087      1.46277195060681     -1.21294213006479
  H          -0.46551744557983     -0.27680203673903      0.09489160055751
  H           0.13721353911792      1.23569637781829     -2.37381828531548
  N           1.42855725272578     -0.02793518422562     -0.81439252833253
  O          -2.43426014737912      1.83087185140453     -4.39383894670715
  O          -3.49847438450687      1.64062459395030     -2.46074141272472
  H          -3.48050061028119      1.08484013581490     -1.66832753010920
  C           2.24647413577710     -1.10374636482939     -0.28903432732753
  C           1.64368500966611      1.17529733098964     -0.03198319822080
  H           1.91411794929727     -1.45427623253764      0.70072660544197
  H           3.26806064958590     -0.73902417678990     -0.19481392769574
  H           2.25602200734832     -1.94126649366417     -0.98199966713950
  H           1.33872751597463      1.05081406027119      1.01976375239463
  H           1.08632127455280      2.00656802464924     -0.45551948988956
  H           2.70235806311747      1.42765342134913     -0.05778885701562
