27
Coordinates from ORCA-job TS E -37.871009280240
  C          -1.22223221887267      0.42461810644416     -1.23850738758035
  C           0.07290017656187     -1.99737516573237     -0.41729847104866
  C          -1.24842680553183     -1.94389098421287     -0.71093876010114
  C          -1.89783751482160     -0.78942905762285     -1.18013219707737
  C          -0.79206981225719      0.87173862091823      0.70840417051839
  C           0.18454396570584      0.02301337551576      1.19636491424981
  H          -1.87234725006079     -2.79219111883788     -0.45883726327610
  H          -2.97734746026290     -0.82525587287710     -1.26175123038287
  C          -1.88993855269899      1.67883743497740     -1.66431537494711
  H           0.49408575807296     -2.87171553247702      0.05017723051840
  H          -0.18352798330418      0.41357589111196     -1.53541328654608
  H           0.77439347968497     -1.29636217085066     -0.82638611272300
  H          -1.78204058870645      0.73157460346922      1.11056365316967
  H          -0.10432680911299     -0.82549377220985      1.79625492079538
  H          -0.54060029361333      1.89738698497665      0.49455976010043
  N           1.52481294357873      0.25141223259663      1.15556831098521
  O          -1.30768921937464      2.57195045796956     -2.22304863292982
  O          -3.19478586972521      1.80270078894189     -1.35338377980856
  H          -3.52050361703805      1.01267521600329     -0.90087151211459
  C           2.42946660822800     -0.74562110367319      1.66472664938323
  C           2.13129374389768      1.17213158682185      0.22709187188450
  H           1.94104879725156     -1.33701115313494      2.43564112260336
  H           3.30027249912293     -0.25311233246633      2.10090881882188
  H           2.77705170363517     -1.42017591495791      0.87267558251596
  H           1.40944035113740      1.90149753511807     -0.12552637781081
  H           2.54592283923471      0.64514470589978     -0.64063390540906
  H           2.94844112926899      1.69937663828853      0.72410728620931
