18
Coordinates from ORCA-job NEB_product E -38.077557398810
  C           1.88892913260334     -1.20659519335559     -1.64887691087015
  C           1.54387416066493     -1.53591524390504     -0.19940728986413
  C           1.54626410849638      0.26672081041747     -1.88019890428878
  H           2.96285352893694     -1.35459515968073     -1.80107067838133
  O           2.43542321739277     -2.36017191212204      0.33701391677077
  C           1.09479557198140     -2.18248246981888     -2.53262267148449
  C          -0.35145126517442     -1.84519635925943     -2.65366165901126
  C          -1.31287424050800     -2.61014232204959     -2.17111525249035
  O           0.57025647740295     -1.13309268101367      0.37165569727387
  Br          1.89484676774857     -2.25893939669524     -4.34306874603498
  H           1.22822063944105     -3.19419490794709     -2.14013718694909
  H          -0.57777931777256     -0.93678432224149     -3.19384430609538
  H          -1.10357240694300     -3.52823546950623     -1.64680477089677
  H          -2.34933556430650     -2.34313570307342     -2.27512016765191
  F           2.43958353635314      1.03606333640075     -1.21340250701081
  F           1.63997379989507      0.61790894052635     -3.17728384215610
  H           0.54024518250839      0.52502992088615     -1.51610278007884
  H           2.21144667127955     -2.57334186756226      1.25814805921975
