18
Coordinates from ORCA-job NEB_reactant E -38.049656716530
  C           1.49698115278364      0.34195840229641     -0.71882378438033
  C           0.87012103862935     -0.83732196973564     -0.84334086466240
  C           2.80635413125261      0.60395928223600     -1.37478395218774
  H           1.04465291893978      1.11859614451868     -0.13377941077688
  O          -0.29527623804649     -1.05131582733607     -0.20925632368552
  C          -0.80680260017315     -2.28192133605260     -3.26574448974938
  C          -0.40644796137074     -3.21530772915962     -2.41764438235597
  C           0.85872572266868     -3.10176015440454     -1.60844376712969
  O           1.42249417044193     -1.80893820150424     -1.60098763292106
  Br         -2.38825945139182     -2.44257455379246     -4.28249645813320
  H          -0.26816014348018     -1.36330082160792     -3.44327430285712
  H          -0.96069904765878     -4.13327338430022     -2.28465232866848
  H           1.63262011176169     -3.73272897790706     -2.05975822881223
  H           0.68855694171814     -3.46652971317206     -0.58417935406603
  F           3.76507882844569     -0.28720884520051     -0.99750188649891
  F           2.72780476871008      0.48492236736882     -2.73291391753463
  H           3.19182210863056      1.61107753829839     -1.15926613594453
  H          -0.77126645186100     -1.80873222054537     -0.57725277963591
