25
Coordinates from ORCA-job NEB E -36.379002872260
  C           0.16002767868815      0.87593250774550      0.22406619733589
  C          -0.85199322631040      0.08811675749148      0.76484518231731
  O          -0.03086190094572      1.53901348134370     -0.97270079791020
  H           0.80279773898511      1.39422299110898      0.93746569375313
  O          -0.69581268596324     -0.22813864609595      2.09569866231702
  C           1.27074889918268     -0.68101016464082     -0.53388399278759
  C           0.31818604024813     -1.23629009775598     -1.36593952931921
  C          -0.84056846620457     -1.81904125513088     -0.77862452537764
  O          -1.63477895210417     -0.61027832260068      0.01398488614123
  C           2.48024911575463      0.00330330548547     -1.09939864477900
  H           1.43508899368538     -1.14962255878496      0.43211982909871
  H           0.24116613406717     -0.86231573559270     -2.37539481426738
  H          -0.66690872270370     -2.50972462897113      0.04246502896549
  H          -1.61417415644488     -2.16095667514791     -1.45439928372845
  C          -0.42099526108826      2.88240201179148     -0.80665254281644
  H          -0.47599268253084      3.31083246210062     -1.80577824830517
  H           0.31289311438154      3.43692919425968     -0.20876273304114
  H          -1.40050744819105      2.95583142950578     -0.32136039628660
  C          -1.53044989087174     -1.24060114485548      2.62555184436287
  H          -0.97568919330848     -2.17991710943193      2.70726056624311
  H          -2.40728929204735     -1.38968902619908      1.99215851323457
  H          -1.83968065604085     -0.91702644372590      3.61926384170232
  H           2.98442276853539      0.59629587452241     -0.34057554637156
  H           2.19739826486738      0.64782416892217     -1.92672400687542
  H           3.18272378635969     -0.74609237534387     -1.46468518360586
