21
Coordinates from ORCA-job NEB E -45.412855452450
  C          -0.74468680180676      1.17097770209219     -0.46953559343075
  C          -1.96069074587691      0.75062305218392      0.06203899305909
  C          -0.33798895496367      0.63909888424654     -1.81373387230602
  H          -0.46340011534634      2.21253283983659     -0.36562117187997
  Br         -2.72750578822569      2.01113815830977      1.37467154268825
  C           0.51222707941220      0.21639600881512      0.92300430238523
  C          -0.01299222486721     -1.08390924823882      0.85128654953528
  C          -1.29556408640204     -1.34663394877459      1.30644399671936
  O          -2.36703305380979     -0.41311634678144      0.11173530595591
  O           1.75553223496347      0.56688938309479      0.58200512852146
  H           0.15503588023205      0.87686095440462      1.70953860769869
  H           0.44801109227830     -1.79830746181492      0.18693379302315
  H          -1.68421525002306     -0.80743917925638      2.15977407167057
  H          -1.70729532410679     -2.33238144975140      1.16118390727120
  F           0.87607581432121      1.08464333266051     -2.17448100503801
  F          -0.29436151075115     -0.69500901960613     -1.91939630551462
  F          -1.18181219579211      1.05817549038302     -2.77541725750014
  C           2.58393764741866     -0.36140484320485     -0.09974652122101
  H           2.80428857856312     -1.21846309353867      0.54236229899836
  H           3.50129677616112      0.17980608195212     -0.31994533243563
  H           2.14114094862140     -0.71047729701199     -1.03310143820040
