21
Coordinates from ORCA-job NEB_product E -45.440247093980
  C           2.74181458564453     -0.53554767076882      1.06613166980489
  C           1.47244061958101      0.06320390871200      1.59122410047805
  C           2.48525080249272     -1.06353555191767     -0.34535720156353
  H           3.51679839297009      0.23463844090037      0.98720563383206
  Br          1.83335920433413      1.41885355123386      2.95152889683583
  C           3.25886936276375     -1.60683167350902      2.12298493867767
  C           2.99720917738652     -3.01261128386959      1.65909607713058
  C           2.08141225271551     -3.78575619847720      2.21082761937949
  O           0.35739151723783     -0.21635600275850      1.32840921490775
  O           4.57635231877430     -1.33001030101601      2.49858745208460
  H           2.69654271188954     -1.43674020572937      3.05050479896079
  H           3.60602001027747     -3.37183036155942      0.84265667179721
  H           1.46037592938659     -3.44626489349493      3.02316945082825
  H           1.91135539168707     -4.78943040574352      1.86349299462176
  F           3.59210959752158     -1.58134694279829     -0.89993594704725
  F           1.54228610500509     -1.99951290351282     -0.42526292366789
  F           2.10772427212713     -0.05847917483350     -1.15056266481311
  C           5.61832880574877     -1.68543876794994      1.60975370896620
  H           6.51650912176689     -1.24572867716607      2.03865770956689
  H           5.46607030075178     -1.28307495493109      0.60511924551213
  H           5.74457951993771     -2.76959993081048      1.55136855370765
