19
Coordinates from ORCA-job NEB E -25.344140597090
  C           0.26640702625968      0.96701937378026     -0.67598501458858
  C          -0.86788178668293      0.57336810974459      0.06802286832496
  N           0.41413618093713      0.63248335542524     -2.04207509038400
  H           0.70409123764891      1.93229374556270     -0.43741781653365
  C          -1.13714068909472      1.19833641445818      1.41216145247708
  C           1.47607977124402     -0.31002280031488      0.12529660292091
  C           0.88562692752793     -1.53678490202152     -0.17090840863605
  C          -0.38417544698313     -1.81206945207825      0.39802030060184
  O          -1.35870311623400     -0.60869233103376     -0.18449604988221
  H           2.39723380333240     -0.06200947862534     -0.38173628721402
  H           1.43664073005255      0.04379874556383      1.14803684928829
  H           1.13314061860037     -2.00928669933073     -1.11017422364159
  H          -0.49206672338780     -1.64156930435618      1.46609981192014
  H          -0.89654528140015     -2.70605967837937      0.06561535241419
  H          -0.21797651748881     -0.12128865889558     -2.28846847595262
  H           0.27462502115534      1.42573647916848     -2.65288717066904
  H          -0.64409240155679      0.63141602144757      2.20700594056062
  H          -2.20630638045225      1.17887002897896      1.61166960583603
  H          -0.78309297347774      2.22446103090580      1.44221975315773
