19
Coordinates from ORCA-job NEB_product E -25.388777957110
  C           2.87775192453806     -0.39316145492718      0.49369626216743
  C           1.41875890781595     -0.29001065251208      0.94839736568629
  N           3.01635290996253     -0.48387470145350     -0.94778258341084
  H           3.39803711048620      0.51792850989928      0.81672209418637
  C           1.19815399820921     -0.10508604223818      2.42545075751056
  C           3.56435562466091     -1.60320192768622      1.16500337402810
  C           2.75572693230180     -2.85612449935189      1.05023592965057
  C           2.36432926769787     -3.58592971337725      2.07788382560467
  O           0.51434229925690     -0.36338009689521      0.15360694280704
  H           4.51910473020895     -1.74281113043806      0.65235029538528
  H           3.76062733616376     -1.38179009926589      2.21462051467754
  H           2.49515025817736     -3.15515581324688      0.04420298031066
  H           2.61886221245261     -3.32284867456895      3.09276145330867
  H           1.78631744929568     -4.48531092426359      1.95305845230863
  H           2.46755372935390     -1.26663207976665     -1.29112302612210
  H           2.63118677213304      0.34772305816285     -1.38402385734154
  H           1.22961337834310     -1.08684174522322      2.89571136789632
  H           0.21600778715829      0.32634736508994      2.60174509200116
  H           1.96996737178388      0.51806062206270      2.86768275934521
