19
Coordinates from ORCA-job NEB_reactant E -25.371915168010
  C           1.39519082124841     -0.03141154070661     -0.14160877381231
  C           1.54415681463979     -0.49457555320169      1.10126026837837
  N           1.19748341860075     -0.83299980357026     -1.26649838516382
  H           1.49695288029945      1.02463246366475     -0.33984699846052
  C           1.78326615705695      0.38306683068053      2.29415392619184
  C           4.24755671370151     -3.13587894526552      2.78192377140068
  C           3.74988349073461     -2.35016673461361      1.84595223710815
  C           2.52147676292697     -2.66982094549101      1.04620254964633
  O           1.40415631963392     -1.85365199960451      1.38167039985647
  H           5.13054085057301     -2.87205176822933      3.33962805688871
  H           3.79326051219767     -4.08228028159486      3.02567084840162
  H           4.21574714476342     -1.40152277530438      1.61285901889677
  H           2.18735222573603     -3.69048400584778      1.25075220384627
  H           2.75430325028368     -2.56741024627689     -0.02405702375229
  H           0.79601866946075     -1.73161885282461     -1.03124596626318
  H           0.68765579475571     -0.37703852980538     -2.00868485052497
  H           2.69387679652912      0.08666497547497      2.81417046296398
  H           0.95727578551289      0.27711101541924      2.99698963976329
  H           1.86324559134535      1.42343669709695      1.99320861463461
