18
Coordinates from ORCA-job NEB_reactant E -30.688657564610
  C           1.61199069883745     -0.37139974839943     -0.11937966556428
  C           1.86824342186215     -0.55759941095147      1.18302277470755
  C           0.63642685079502      0.52108386975024     -0.59135325709711
  H           2.16366828805981     -0.92064774966069     -0.86610135248634
  H           2.63965197196022     -1.25811181986911      1.49364682542363
  C           2.96601801907378      1.71045276086550      4.63231117444525
  C           2.88925079908134      0.75854926485285      3.71868248762661
  C           1.66939366455952     -0.08026560220257      3.47715538682132
  O           1.18777665608188      0.06733176822149      2.15275525152012
  C           4.17673367151909      2.55144642260686      4.87573104221264
  H           2.13362824233143      1.93684951255728      5.28366472573594
  H           3.73249639278282      0.55968958985072      3.07065416095257
  H           0.84693570546587      0.23618661034506      4.12215013506879
  H           1.89883076433229     -1.13794267963909      3.67659864495172
  N          -0.15261053119048      1.24497898987024     -1.00410972486286
  F           5.22713315734152      2.18806573582669      4.07381324663929
  H           4.52003843989548      2.45210165425858      5.91324336942864
  H           3.96499378721081      3.60733083171684      4.66511477447652
