18
Coordinates from ORCA-job NEB_product E -30.688130167090
  C           2.31682407811360      0.72582613101909      1.49113558930453
  C           2.80149367470534      1.88992409757800      0.64345008301151
  C           3.04823578357598     -0.46967009868197      1.13068933325636
  H           1.27070617315863      0.55144677756570      1.19568944848624
  H           2.91332034240315      1.63161744289892     -0.42563182994249
  C           2.35052408782817      1.03396017136659      3.00640964847857
  C           1.64543081671564     -0.05254279743040      3.76829164002532
  C           0.54034801966806      0.13615241440472      4.46276124126342
  O           3.02623941554311      2.98733791184800      1.05957685104658
  C           3.78102830942170      1.21267169606822      3.52565299076164
  H           1.84062180529987      1.99192401183228      3.15453183242018
  H           2.11600690979687     -1.02504574429019      3.71442389504073
  H           0.06511663475988      1.10214771175996      4.52588703213791
  H           0.06454859276814     -0.66583901503940      4.99956205492370
  N           3.61284651654742     -1.40591228207360      0.80249064094085
  F           4.49311696524676      0.04392656069224      3.45221270039146
  H           3.76092766066522      1.50243848459782      4.58139325315351
  H           4.32816421378245      1.96033652588402      2.94367359530001
