22
Coordinates from ORCA-job NEB E -43.990216900870
  C           0.44072963944669     -0.35913770537609      0.75192657443856
  C          -0.39815345884983     -1.35722038852161      0.19531718468866
  N          -0.17191483162476      0.39185805555069      1.83618674704143
  H           1.44695207605533     -0.66332261575598      1.02991221113715
  C           0.13779388872607     -2.72466031977647     -0.08902865587196
  C           0.50184722588046      0.89040492100819     -0.61733435075892
  C          -0.84317911455500      1.25646270113524     -0.76917281419351
  C          -1.77529455201353      0.19177245378983     -1.09076404187136
  O          -1.59183434310887     -1.05365697286152     -0.23979211811333
  C           1.49591484079020      1.96630075009902     -0.23570318323154
  H           0.94184028585943      0.23917420748027     -1.36926001069169
  H          -1.21267593886201      2.14611258705663     -0.28837369193378
  H          -1.63677032225413     -0.22740025065522     -2.09050478503550
  H          -2.81391833695521      0.46956534488324     -0.93372378200459
  O           0.46000934992065      0.43704670678305      2.86918719055486
  O          -1.28115088898551      0.83976848522916      1.65391898118867
  H           1.03333982203966     -2.65888965603466     -0.70831125685508
  H          -0.61611684504415     -3.31427261257896     -0.60238484100116
  H           0.41197590985453     -3.22756338092810      0.83651192071531
  F           1.12260529192303      2.63851501352482      0.87158611936002
  F           2.70731420767205      1.41535836442460      0.03248426390523
  H           1.64068609408488      2.70378431152388     -1.04267766146747
