22
Coordinates from ORCA-job NEB_reactant E -44.029325414300
  C           2.08996871608387      0.78360293154910     -0.28975476957454
  C           1.55310815308435      0.19305195022005     -1.38320848982814
  N           1.80082928810625      2.04308954350145      0.26178157102936
  H           2.86072606253963      0.25894469994204      0.25326939263146
  C           1.90246430542912     -1.23599416964886     -1.68349088400345
  C           2.13352127830912      3.99096999842353     -1.99295642398574
  C           1.91762945421977      2.82184902548181     -2.57143586347655
  C           0.60746644841544      2.09634242427033     -2.52466393325754
  O           0.78171946891134      0.69616143839775     -2.34085946594391
  C           3.45745658057490      4.68857004879711     -2.00098796662880
  H           1.36264325102030      4.51690113533198     -1.44878588482345
  H           2.71190826089918      2.31517985313512     -3.10487003483836
  H           0.09913885727086      2.17020334415526     -3.49164847187166
  H          -0.03540946674019      2.51556500202223     -1.74105116303610
  O           2.70887517136744      2.62593489144881      0.82989298568787
  O           0.65842343921389      2.47229777425649      0.19148611510421
  H           2.74729898654943     -1.27029084958943     -2.37010633433120
  H           1.05686301548906     -1.71039273357925     -2.17454306744491
  H           2.15943617061758     -1.77984776239049     -0.78131603615476
  F           4.35744259938386      4.07129114295947     -2.80479727359355
  F           3.33684321814855      5.95645961171110     -2.47160672099365
  H           3.89274674110625      4.74791069960440     -0.98824728066659
