23
Coordinates from ORCA-job NEB_product E -52.344568999330
  C           3.32033442977261     -1.95340793056977     -0.52030793738367
  C           2.63472315559346     -2.34909719947499      0.80488629786395
  N           2.93016324482217     -0.55715496922539     -0.87358462107171
  H           4.40567179583349     -1.94898586316108     -0.35277397418942
  O           2.42422731845865     -1.27978625383403      1.54872839423016
  C           2.95159461920447     -2.97949368297631     -1.61025943540585
  C           1.52674066512106     -2.86681463655238     -2.09284031826386
  C           0.56183353378753     -3.64601358436509     -1.64338906495654
  O           2.37284229623220     -3.47846683572205      1.10112714355007
  C           3.91022415221572     -2.85324607136587     -2.79236104076941
  H           3.10761722763982     -3.97105026945955     -1.16697711326287
  H           1.33464608728111     -2.10660184171490     -2.83576265235013
  H           0.74200121026152     -4.40276620883788     -0.89790161562706
  H          -0.44777893839410     -3.54250474008818     -1.99836321925108
  O           3.81100478478095      0.25976859875467     -0.87972927415345
  O           1.76699340214551     -0.35746749080028     -1.10551623262693
  C           1.79798093986211     -1.48830735384970      2.81282252817677
  H           1.73727804354660     -0.50975045551991      3.28034867723313
  H           2.39400367837482     -2.17221282795000      3.41888256358093
  H           0.80215230729799     -1.90988622273838      2.66989493963181
  F           5.19128881109485     -3.00348919330399     -2.41686142599613
  F           3.67093653677499     -3.78179274847624     -3.72267923152999
  F           3.82692069829249     -1.66147221876869     -3.39628338742873
