23
Coordinates from ORCA-job NEB_reactant E -52.323528915170
  C           1.96593028391869     -0.05745673453520     -0.24356596859275
  C           1.87764871846175     -1.13307460339862      0.59622651956577
  N           1.38640552563962      0.16071078213150     -1.49067221081377
  H           2.50751837515619      0.79532800618954      0.13562928832923
  O           2.34885845149602     -0.91046135921399      1.82509141940263
  C           3.09741762697811     -4.22951356628694     -2.19564671524946
  C           2.75325103653279     -3.20288449572773     -1.43282039039759
  C           1.39163319491572     -3.00524055612773     -0.85795316006091
  O           1.43940081321935     -2.37416592629990      0.41790160140677
  C           4.48197883693868     -4.34619383927078     -2.75524049412828
  H           2.42140095982375     -5.02554577632162     -2.46304911470770
  H           3.47985097491938     -2.43168330500484     -1.20611768190992
  H           0.89152794383475     -3.95720809925459     -0.67280054737204
  H           0.78533597629920     -2.40493095119175     -1.55622206466641
  O           1.77407553128075      1.12710781038008     -2.11852781892043
  O           0.49655056607732     -0.58860945840341     -1.88747054597325
  C           2.38930278458439     -1.99072322302441      2.74717180477475
  H           2.85118473680266     -1.58308585500929      3.64302689790286
  H           2.98728176299033     -2.81766865104220      2.35868108648447
  H           1.38293339290172     -2.34799165334758      2.97246753005480
  F           5.41701238691574     -4.38849688194942     -1.78477576051817
  F           4.63887284040486     -5.45495084819613     -3.48528881260122
  F           4.81602727990822     -3.31006081509498     -3.54134486200937
