20
Coordinates from ORCA-job NEB_reactant E -32.737332444420
  C           2.49078839013458      0.78333877951772      0.14412774397636
  C           1.94110227709977      1.66796553996664      0.97262785489960
  Br          4.03268677737630     -0.31509229012868      0.34846757027897
  H           2.05512262193350      0.63902121575747     -0.82939257225242
  C           0.75757922213602      2.47198563116685      0.47749768919124
  C           3.46665392751859     -1.00438791917815      3.64712770279903
  C           2.70292087245326      0.06367783815000      3.50029190248528
  C           3.21157462712614      1.39359057986453      3.02445695332329
  O           2.25793363842325      2.06860048473389      2.22512803922132
  Cl          2.86283825732789     -2.49769231055521      4.23672516804001
  H           4.52067867909653     -1.02194932961910      3.41652768632858
  H           1.64844716032174      0.03332123707734      3.73535587072346
  H           4.17794735113615      1.30034298348338      2.52239824297428
  H           3.33479678322235      2.05864361195930      3.88792824738559
  C           1.22246460251383      3.80862909133280     -0.09951774924288
  H           0.09731066389770      2.65475490358560      1.32600517024638
  H           0.21188098158626      1.90955761382467     -0.27935848835510
  H           1.76539215029299      4.37362042169749      0.65353907379590
  H           0.36622703329538      4.39436741741307     -0.42385396348661
  H           1.87745398310775      3.64770449995040     -0.95248214233228
