20
Coordinates from ORCA-job NEB_product E -32.747137167520
  C           2.64349731045012      0.68762239971865      1.16856881179937
  C           1.62213013227325      1.82364445955112      1.17547092798848
  Br          1.65683822703450     -0.92936003078550      0.66541320309908
  H           3.36881217961520      0.83163346122256      0.36405369067262
  C           1.13964952146412      2.24296336083769     -0.18964937705757
  C           3.35113954928363      0.52551290365040      2.50363078130061
  C           2.47727922895057      0.08185541236745      3.62538757643767
  C           2.42874505787267      0.69326936410299      4.79391944653003
  O           1.27570302610792      2.35481407515962      2.19602924899551
  Cl          4.68362800968945     -0.68385455278643      2.29912944723922
  H           3.83916560883056      1.47404986670215      2.74829375308067
  H           1.89384556184419     -0.80901600487079      3.43856756523295
  H           3.00759731871280      1.57817551154205      4.99930882616276
  H           1.79292471411195      0.33929802035227      5.58589486133367
  C           2.04836333281964      3.36300384183322     -0.70840887317560
  H           0.12193019271654      2.62398007972588     -0.09488154895824
  H           1.14711615187278      1.40488914190961     -0.88633872827265
  H           2.05055636970689      4.19868956357175     -0.01277487664743
  H           1.68543389939050      3.71303526057158     -1.67090841415104
  H           3.07084460725270      3.01259386562372     -0.83340632161013
