22
Coordinates from ORCA-job NEB E -53.260515069660
  C          -0.08371594104376     -0.91412579050503      0.21366930429998
  C          -1.04752845426202      0.22232338533092      0.60238016974966
  N           0.75619443897999     -1.47340012480369      1.23419626424313
  H          -0.71374013990779     -1.74113825026251     -0.15513781859310
  C          -1.66544373872561      0.38793904365878      1.77809078521601
  C           0.77063354020524     -0.45416314546695     -0.99340835649023
  C          -0.08124819642897      0.07829948446782     -2.08263785523181
  C          -1.46004985776947      0.40690051804475     -1.69937319076179
  O          -1.40870094183864      1.04612151397212     -0.42372629351759
  C           1.86361626863941      0.59268672475550     -0.62589882399094
  H           1.34810491700779     -1.32902108946375     -1.32804210816868
  H           0.39272272580034      0.50654526036030     -2.94776910055678
  H          -2.10259011318169     -0.48538336026302     -1.61958241287649
  H          -1.92771987004103      1.12533139509553     -2.37346210390713
  H           1.41531910113525     -0.79194388471058      1.61379446066850
  H           0.23233511660383     -1.83955040557899      2.01762556482769
  Cl         -1.48363449723497     -0.58250215174944      3.16531054989384
  Cl          1.31715910369678      0.74120192356111      3.26113493053835
  Cl         -2.77678566844441      1.69780455233881      1.96392570849578
  F           3.02034101793607      0.01255899685562     -0.30803545669820
  F           2.14093716300676      1.41090330333709     -1.66043059100028
  F           1.49379402586691      1.38261210102562      0.36737637386011
