22
Coordinates from ORCA-job NEB_reactant E -53.350848666400
  C           1.37086375535116     -0.04344289478317      0.06502284896914
  C           1.58901641995531     -1.03655195161447     -0.81726843903428
  N           1.23289769857972      1.26064262569451     -0.30241084180637
  H           1.34063668646441     -0.24644517843968      1.12301141526929
  C           1.83225431588635     -2.45688577874108     -0.43431369152889
  C           2.59371059601761     -2.60070663553408     -4.09248634028673
  C           3.37512431620343     -1.67042745738685     -3.56953635876635
  C           2.85921687951443     -0.51698741493780     -2.76356816137630
  O           1.58370777647819     -0.75525426216082     -2.17605298716896
  C           3.11491080251886     -3.74286470354541     -4.89960344192193
  H           1.52391816426099     -2.60221415281675     -3.95239191247406
  H           4.44459485627089     -1.68826149987485     -3.72667255034139
  H           2.73270630256148      0.33973034212779     -3.43982346170395
  H           3.58866716672253     -0.24012525109425     -1.99525855720228
  H           1.06600875130482      1.41678294782491     -1.28528339611799
  H           0.74469976882322      1.87327794242864      0.32783082353804
  Cl          3.55965418479511     -2.92345470015500     -0.70744668486362
  Cl          1.47860337057266     -2.77588949924172      1.26679330954843
  Cl          0.82827515741998     -3.55438843343020     -1.41739365648795
  F           2.85417290378810     -4.93103666792196     -4.32743044329614
  F           2.55253649372771     -3.78889862849192     -6.12266219972072
  F           4.44112363278303     -3.69909874790583     -5.09665527322699
