17
Coordinates from ORCA-job NEB E -36.861260360440
  C           1.07253121540737      0.63795280013558     -0.43566521017030
  C           0.27565255910306      1.64773503234340      0.10602517079814
  N           0.72404073554109      0.05335832771176     -1.69189829719051
  H           2.12301571917734      0.55862346691031     -0.19238051555931
  Br          1.17511789510488      2.64052197125709      1.56105488733568
  C           0.29976796061237     -0.99117416597451      0.73701953736272
  C          -1.02951660485503     -0.83930475408922      0.31212974906238
  C          -1.78647575913682      0.21507633220612      0.77854263387574
  O          -0.93942911688177      1.75204517114280      0.01205521135696
  O           1.10354913214692     -1.98337150523460      0.40024650407513
  H           0.59359902921564     -0.55890280364446      1.69047344295208
  H          -1.35388898512393     -1.37528781083583     -0.57060774660868
  H          -1.61571978875600      0.60518714443909      1.77105880332206
  H          -2.77115052098855      0.38099859151186      0.37426550201726
  O           1.36664338138265     -0.93542757050399     -2.01320467303430
  O          -0.18540045978474      0.51503101956503     -2.33863575281081
  H           0.94766360783552     -2.32306124694043     -0.50047924678426
