24
Coordinates from ORCA-job NEB E -36.306547593500
  C          -1.07128522658866      1.26068235496280     -0.93398016443497
  C          -1.15566484168998     -0.05847607154361     -1.07009633915988
  C          -1.13493280664032      2.14477328831676     -2.17661782306973
  H          -1.66366493625294      1.67190288779119     -0.12346342496398
  Cl         -2.92721893002424     -1.00269031117426     -1.67124992010126
  C           0.12808315454887     -2.01702507654503      1.56574490375820
  C           1.11420508164052     -1.48686670007257      0.84964835585044
  C           0.93029579967758     -0.93152240158143     -0.53255176626047
  O          -0.42443563514502     -1.06955540005899     -0.97511988045287
  O           0.18672551098166     -2.53334463347281      2.80559536991934
  H          -0.88163609508135     -2.08557330323236      1.18362356112783
  H           2.12725788539353     -1.41806618456995      1.21243508599932
  H           1.54088542253425     -1.49194096947374     -1.25022253104662
  H           1.21133581582207      0.13017463259126     -0.56348673624453
  C          -0.58764774036582      3.53068035750895     -1.86266526751606
  H          -2.16782996361275      2.22399124012759     -2.52881842728649
  H          -0.54652047009811      1.68280246190507     -2.97124780508717
  H          -1.18448829163738      4.01137708649839     -1.09144065409244
  H          -0.61158174931741      4.15120461212508     -2.75554058131556
  H           0.44034973067746      3.46873044540864     -1.51263357282390
  C           1.43412836278683     -2.53812551796572      3.46206977557340
  H           1.25964949156191     -2.99466332257284      4.43429211582446
  H           1.81346544571163     -1.52074114467568      3.59806852303801
  H           2.17052498511768     -3.12772833029670      2.90765720276493
