24
Coordinates from ORCA-job NEB_reactant E -36.397660028270
  C           2.75894300627947     -0.39336608472483     -0.35806124535070
  C           3.27164251207174     -1.59929357092136     -0.56822617487429
  C           1.28793068177591     -0.11139911446523     -0.35022879246012
  H           3.42292408749319      0.44478629323593     -0.22376996445372
  Cl          5.00530375668278     -1.80762818747189     -0.55354228967520
  C           2.71973135900351     -3.42735758334309      1.89733782352269
  C           3.30420263700654     -4.15879463196972      0.95664418459307
  C           3.03298609923338     -3.96811736446587     -0.50867883038670
  O           2.52789736856933     -2.68600866517850     -0.84547253741364
  O           2.88886990242690     -3.48806559528926      3.23647964912770
  H           2.00569361224417     -2.65256785056410      1.65224105374282
  H           4.01655921360085     -4.93485941461219      1.18586244449112
  H           2.25371050596292     -4.65628021839997     -0.85536977043618
  H           3.94836736499466     -4.17148543196040     -1.07957208347914
  C           0.88901677157295      0.75621973233938     -1.54356382146483
  H           1.03276163480113      0.41330397641256      0.57443009724890
  H           0.73995770097182     -1.05298027704280     -0.38213194164324
  H           1.43104371321795      1.69901560848485     -1.52767985072425
  H          -0.17695137598274      0.96896623507438     -1.51666649234329
  H           1.11781371166917      0.24232499044754     -2.47369420573309
  C           3.80677233080708     -4.43295869397457      3.73470856371487
  H           3.80906673564748     -4.30945225115097      4.81607756179438
  H           4.81239895975077     -4.25108230980895      3.34291611982110
  H           3.50135771019903     -5.45361959065094      3.48346050238176
