24
Coordinates from ORCA-job NEB_product E -36.404014374090
  C           2.79100490058088     -1.25330346052725      0.69774727390430
  C           2.77289223973941     -0.43739707298668      1.95941568007233
  C           1.86846169152982     -0.55889646392104     -0.31998117555189
  H           3.80597946684199     -1.30704736798846      0.29835893872660
  Cl          4.39377556373440      0.02928999606260      2.50667249002432
  C           2.30188325595842     -2.67744968538840      1.09267430265724
  C           2.47914593795023     -3.65959373518624     -0.03255878587923
  C           1.56876354579555     -4.55763603171758     -0.36004964934446
  O           1.82883027215220     -0.08337927448472      2.57719183901876
  O           2.91613260400627     -3.11684162649020      2.29507629831888
  H           1.24269340738478     -2.61080534948444      1.36701003649254
  H           3.43146382724389     -3.62485462026687     -0.54471027546914
  H           0.61969552790996     -4.61144166025981      0.14678339540120
  H           1.73268486737481     -5.27186688661103     -1.14941427503624
  C           2.06746066203135     -1.04922306190638     -1.74786682630476
  H           2.07551005264095      0.51358196753261     -0.28734407566156
  H           0.83103159762794     -0.70218064413368     -0.01492170371306
  H           3.10277279457679     -0.92230793084529     -2.05623847739185
  H           1.43927608104934     -0.47257980842511     -2.42220929501367
  H           1.80115648669630     -2.09780727341191     -1.84197310969466
  C           4.25633040290593     -3.54787142458719      2.20846075497850
  H           4.56077878742289     -3.74882203214595      3.23394647135477
  H           4.91372550280040     -2.78131330746957      1.78786609960951
  H           4.34555052404546     -4.46795324535741      1.62136406850158
