26
Coordinates from ORCA-job NEB E -35.630668637580
  C           0.52068268194874      0.54032525723986      0.27468607891764
  C          -0.65005861359410     -0.18621421591962      0.53608398613095
  C           0.43634220943519      1.89688701068015     -0.40892242762368
  H           1.24530370898261      0.53905006460462      1.08458262567673
  C          -0.67373520507610     -1.17467483694761      1.67744063229682
  C           1.31687603933535     -0.59378205398294     -1.07729036924118
  C           0.33623554219611     -1.43329608366501     -1.61661229885374
  C          -0.92817217003655     -0.80770918663730     -1.85259387211673
  O          -1.50646941285526     -0.39570651384133     -0.42905003502788
  F           2.36665007302296     -1.20608068869791     -0.47292723619774
  H           1.68773737670983      0.23525309073569     -1.67108096480112
  H           0.31675778044726     -2.44947927731043     -1.24188668896211
  H          -1.71626423962961     -1.45169182003683     -2.22719034823920
  H          -0.88928327704943      0.13356382129437     -2.39811072707287
  C           1.76890789267627      2.63716517050536     -0.40061073744742
  H          -0.29387481235816      2.49464234276795      0.14436928920452
  H           0.06309066473042      1.80804863985556     -1.43024145928742
  H           2.09650058791353      2.81513186457701      0.62115793944296
  H           1.66616032462753      3.59823146793336     -0.89925281106866
  H           2.54650077538389      2.07256998415933     -0.91013002314241
  C          -2.09378485165253     -1.48866980247887      2.13554440115629
  H          -0.07826791579287     -0.79507159683502      2.50805041865717
  H          -0.20091833906058     -2.09751824373305      1.31463746592166
  H          -2.55991580309011     -0.59991585266094      2.55418572611989
  H          -2.08528395424316     -2.26806310578654      2.89326548762682
  H          -2.69171706297123     -1.82299543581987      1.29189594793071
