26
Coordinates from ORCA-job NEB_reactant E -35.666708338930
  C           1.91619554600210     -0.22544122626114      0.03217469415114
  C           1.47029553545118     -1.45125867317319     -0.21776735137537
  C           1.83942063846588      0.93711545562768     -0.90726137225533
  H           2.37938264774114     -0.02853156107111      0.98841419196014
  C           1.53719942508802     -2.58408853506744      0.77096114306971
  C           3.44820803079491     -3.87855753597512     -2.29508740612302
  C           2.16673826289026     -3.56871504701475     -2.30332603054526
  C           1.66525487642080     -2.16539654019614     -2.47019242839517
  O           0.82234918777019     -1.75010255757211     -1.41331484766858
  F           3.87374426100839     -5.14397145319723     -2.14553302158390
  H           4.27166132390107     -3.18856917490430     -2.41385371765215
  H           1.41876471342298     -4.33641596650215     -2.16843699946642
  H           1.03441688621552     -2.11121034112277     -3.36428004861985
  H           2.51236146009966     -1.47648976276868     -2.58620686978436
  C           3.23174826256824      1.44542825327105     -1.28190690039640
  H           1.28899025822558      1.74614553763530     -0.41878323762397
  H           1.28857560881390      0.65010470894927     -1.80378843060807
  H           3.77745936823761      1.75043221642283     -0.39164481464258
  H           3.15674201356035      2.29978893640017     -1.95055907034199
  H           3.80430887123498      0.66625182648998     -1.78146050287851
  C           0.13270916013021     -2.99134324714286      1.21645080412960
  H           2.13165484425023     -2.27955192717731      1.63267137634748
  H           2.02521554198062     -3.44185218576141      0.30074839943273
  H          -0.34698684229942     -2.17084420706455      1.74461269480306
  H           0.17731393926381     -3.85482100646275      1.87590446448860
  H          -0.47352382123823     -3.24090598636127      0.34936528157845
