21
Coordinates from ORCA-job NEB_reactant E -40.533541530420
  C           1.71560931154091     -0.10253951597311     -0.13251374523953
  C           1.44830488992374     -1.41923818391336     -0.04816921086665
  O           1.64379502494614      0.61584072605058     -1.27199819137796
  H           2.00219869193325      0.40090629929993      0.78201003099759
  N           1.56369648319353     -2.03489764414222      1.25619881860171
  C           4.01279681951990     -1.34714934632592     -2.50605032025811
  C           3.17969708206705     -2.33680373668209     -2.20517939825398
  C           1.69406626914784     -2.18340813667310     -2.28519871773554
  O           1.08863032025540     -2.30695699622911     -0.99288334717884
  O           5.35959735496374     -1.33129609984573     -2.45141782596658
  H           3.64740607305840     -0.39646827113709     -2.87374872565344
  H           3.52301921383965     -3.28680197294160     -1.82673710082592
  H           1.24291066799804     -3.00130926057125     -2.85177591467479
  H           1.42337757692240     -1.22558447300290     -2.73903486700148
  H           1.92733307456881      1.52431096072110     -1.11819107007767
  O           1.49800805274181     -3.23956134493343      1.30981926890198
  O           1.72558592382539     -1.30169025754741      2.21455655252069
  C           6.00890574868665     -2.49957648522395     -2.00039266753466
  H           7.07455957862690     -2.28088559562758     -2.02760662460492
  H           5.79103031553353     -3.34846887069416     -2.65493192247336
  H           5.71147152670691     -2.74752179460761     -0.97715502129855
