23
Coordinates from ORCA-job NEB E -40.928862959170
  C           0.27256481593639      1.50749420618095      0.21206874027436
  C          -0.96194408351329      1.94579225528763      0.67257457523391
  C           0.54179012812083      1.50629393146015     -1.27229230959886
  H           1.14201014624432      1.84313412320656      0.76679413864293
  F          -0.94359548433962      2.41440316998208      1.97357847083582
  C           0.06160218727984     -0.45218356586996      0.80674181664661
  C          -1.15864490079275     -0.76347143395404      0.22070607362795
  C          -2.32633847174415     -0.10130864169957      0.65698808894562
  O          -2.07345843366899      1.54747698127669      0.25026455716984
  C           1.34072986152214     -1.17786807099116      0.46657687421850
  H           0.03113897918704     -0.14804635276279      1.84991646890024
  H          -1.17594910511744     -1.22439422120378     -0.75361731500812
  H          -2.46101650303575      0.03977223330682      1.72411828594339
  H          -3.24572913075714     -0.29750960793158      0.12392810255220
  F           1.80074773283464      1.07273036594026     -1.52975706857202
  F          -0.28182896629338      0.71995574111923     -1.99427645559387
  H           0.46524190431095      2.52556315401109     -1.69170722265481
  C           1.31128627223741     -2.00147099943437     -0.81504917066747
  H           1.54772761633620     -1.84777732077932      1.30798033850145
  H           2.17089189894920     -0.47090049337933      0.42323140648326
  H           0.57206672389522     -2.79575245049715     -0.74587693286225
  H           2.28648339695829     -2.45545078581107     -0.97323002113345
  H           1.08422341545004     -1.38648221745736     -1.67966144188523
