23
Coordinates from ORCA-job NEB_product E -40.978350511550
  C           2.39825337469820     -1.98764586068828      0.09142936599446
  C           3.11814110871095     -1.15799960380276      1.11009420587122
  C           1.29160705910454     -1.14456734083303     -0.56280095603332
  H           3.09103126970553     -2.29208203421459     -0.69834274815256
  F           4.45197118572403     -1.43964334102308      1.12338289350791
  C           1.80120285445946     -3.25203370702059      0.77411143307405
  C           1.05545671557915     -4.06543839063046     -0.24471737820713
  C          -0.20240566995149     -4.43505183210587     -0.10153672060430
  O           2.69331941790965     -0.34674304450391      1.85144065468074
  C           2.87364212683641     -4.09604425771929      1.48612043433006
  H           1.09286328240993     -2.90829137444669      1.53569894738398
  H           1.61270996958321     -4.34500318600413     -1.12762969741908
  H          -0.78305316953593     -4.15185297916763      0.76080488219058
  H          -0.70576656196091     -5.02973646038985     -0.84373134974415
  F           0.97418041641307     -1.65415745204534     -1.77586175310980
  F           0.15427993527851     -1.14032269578734      0.15859824425508
  H           1.59301897754147     -0.09531113861724     -0.71367763949968
  C           3.97895971898957     -4.63805060470706      0.58611601964083
  H           2.35598653000306     -4.93708300418384      1.95271299977354
  H           3.32120471373219     -3.50401458114470      2.28794245639753
  H           3.56732676858230     -5.23466685457223     -0.22327329087974
  H           4.63784415805604     -5.27478132635168      1.17127523068165
  H           4.58292581813104     -3.83837893004042      0.16594376586811
