23
Coordinates from ORCA-job NEB_reactant E -40.957172930640
  C           1.69776991209104      0.11261517156477      0.36106392318780
  C           1.30229739064871     -0.56604066113865      1.44444066262676
  C           1.57061659350646     -0.25988352954891     -1.07407905312743
  H           2.14309705124642      1.07447422175895      0.55112181512724
  F           1.48288498623601      0.06739718151688      2.62104073485528
  C           2.32734304298382     -4.73143833773098      1.19620986462270
  C           2.11768332051640     -3.48466068007037      0.80828893270455
  C           0.76958968569637     -2.83116122509839      0.79666074543521
  O           0.72174163914471     -1.71822755206349      1.69792039606178
  C           3.65809468623560     -5.40900450043917      1.19193448921904
  H           1.49467797889016     -5.34494341740140      1.51685555992375
  H           2.94096415886856     -2.86401871401436      0.48335973918062
  H           0.00746633449591     -3.51116472986415      1.18306953156349
  H           0.48754950973841     -2.52759342893150     -0.21370490321785
  F           2.33927286862685     -1.33335422088227     -1.42245540230854
  F           0.29825007702383     -0.61230855238587     -1.41717953664065
  H           1.86398203925931      0.57046484622391     -1.73187092631603
  C           3.64762628158224     -6.62777798072478      0.26921246789337
  H           3.89289294682478     -5.73535258437020      2.20897466103736
  H           4.43072788845021     -4.70909949718232      0.87053684631623
  H           2.89169055368890     -7.34211110416483      0.58749266105044
  H           4.61622969583223     -7.12126582247504      0.28266532256813
  H           3.42695135841308     -6.32454488257781     -0.75145853176323
