23
Coordinates from ORCA-job NEB_reactant E -40.954960805430
  C           1.62783884194489      0.23519957093378      0.05430221340105
  C           1.07061889641399      1.04600468435581     -0.83634723397096
  C           2.07610551653289      0.41853528570484      1.47397068524276
  H           1.82826555357376     -0.76191847342105     -0.31619761579250
  H           0.84312114890588      0.65772944093163     -1.82200550659879
  C           2.84698003843572      3.93261918883563      1.63183748876659
  C           2.34363990866796      3.47479403908993      0.49690485174941
  C           0.89047091783166      3.19382621316538      0.26657920271211
  O           0.65761801548246      2.34753360163063     -0.82999523990349
  C           4.30161959151351      4.21814151276616      1.81774670749214
  H           2.24985571525398      4.13836001684557      2.50747328981638
  H           2.98489768350556      3.28388571333630     -0.35367111916319
  H           0.39702932198630      4.13375118212654     -0.01396038811322
  H           0.40336310690244      2.81888034094404      1.17576720500012
  C           3.59443328350075      0.26034510786056      1.58142380921473
  H           1.60086806022685     -0.35882547711865      2.08037265353196
  H           1.78727111549967      1.38013143360720      1.88936545748984
  H           3.90048037123369     -0.72094131980217      1.22674811351314
  H           3.91543751456029      0.37192474223779      2.61427156463719
  H           4.10119343851057      1.01270812803229      0.98124818904725
  F           5.05583629793264      3.85698556696815      0.77162820318275
  F           4.53741741634485      5.52777469302091      2.02460256013134
  F           4.80253824523971      3.57845480794871      2.89003490861337
