26
Coordinates from ORCA-job NEB E -54.771762108670
  C           0.35566693938918     -0.01870694230668     -0.47536799142921
  C          -0.84163766761882      0.52587159069734     -1.19409193487234
  C           0.07122975582273     -1.49022033942501     -0.09210688058087
  H           1.22534879789204      0.00537664113806     -1.13686366040166
  C          -0.78922449616317      0.64159870665025     -2.68411800621602
  C           0.51492617234482      1.04108020171488      0.64646161007208
  C          -0.85395050640634      1.46338304703688      0.99967511289646
  C          -2.10295988626241      0.75515538150628      0.63425524113631
  O          -2.08513814252543      0.32777032877137     -0.69580133073667
  C           1.38976757582212      0.76909988442447      1.88898785801932
  H           1.04802804994771      1.87477075717830      0.16218846094889
  H          -0.95561734298981      2.11526194834749      1.85757962108067
  H          -2.95093944753763      1.44569221407197      0.70784075458161
  H          -2.32217162919570     -0.07853831881091      1.31956068150037
  C           1.31721587651637     -2.35275593892080      0.05725694766584
  H          -0.52932304560074     -1.91227098807176     -0.90163180725941
  H          -0.52776413783271     -1.54537451355587      0.81576104154256
  H           1.99153979129371     -2.21026463952455     -0.78358664378436
  H           1.02118060569152     -3.39849130535031      0.08270280096287
  H           1.85738114017467     -2.14610430000598      0.97482094149765
  F          -0.68549046610077     -0.55248734069723     -3.31632823132950
  F          -1.85910571840581      1.25022716913731     -3.19574097644981
  F           0.29292532000609      1.34403098960135     -3.06921314659348
  Br          1.58072513579480      2.44174142982272      2.91415333359221
  Br          0.63263644482954     -0.54100159135536      3.11519792508909
  Br          3.20475088111403      0.24515592792580      1.36840827906742
