26
Coordinates from ORCA-job NEB_reactant E -54.828111585340
  C           1.85391904424342      0.26548082381311      0.11346421235066
  C           1.35440293130986      1.41797376565404     -0.32343334770113
  C           1.99964421443679     -0.32365122735799      1.48034924005785
  H           2.25993726968523     -0.37749284121173     -0.65620824369081
  C           1.36600700927269      1.72942854711988     -1.81198743044690
  C           2.33677007392344      2.63629787535956      3.55843502013067
  C           2.09314746654419      2.80394846935250      2.26792743872973
  C           0.73035861417487      2.67064785844973      1.66020784552367
  O           0.76339263450782      2.50142215799736      0.26457484877720
  C           3.65059649031767      2.76487373471706      4.22266123459113
  H           1.53717238853921      2.38487588771020      4.24592211495897
  H           2.87624770602497      3.06379351720994      1.56818654553069
  H           0.18916473442995      3.61652549453477      1.78873816459979
  H           0.14468897684830      1.87826806655419      2.14319633878357
  C           3.47545126701169     -0.59468502382352      1.77921812363861
  H           1.46082477006576     -1.27522903478593      1.49022258050336
  H           1.57901668960750      0.30222697135741      2.26207837118010
  H           3.89607062473146     -1.27122250774296      1.04016823379407
  H           3.58326450609627     -1.04514432437160      2.76248065229702
  H           4.04768976288737      0.32988986965523      1.75483876426660
  F           0.13130949754082      1.94144417034612     -2.28655412637475
  F           2.07450740581098      2.83795246585876     -2.07407021126912
  F           1.89794341515170      0.75437476427827     -2.55855343585424
  Br          3.58017155299264      4.23984819195453      5.54051139756044
  Br          4.03547732143912      1.10083221332169      5.21077985422941
  Br          5.14152363240629      3.09782011404937      3.02604581383341
