21
Coordinates from ORCA-job NEB E -28.772898442650
  C           0.22863576992594     -0.90306963947288      0.68980625219000
  C          -1.10468073152096     -0.72709022165159      0.26172922496062
  N           0.67300095502234     -0.37235970194469      1.91761037426193
  H           0.75643179212688     -1.80127956120609      0.39178746177073
  C          -1.62283527256376     -1.54881010729914     -0.89717601408988
  C           1.03035666920795      0.43647175660939     -0.59209856214442
  C           0.37230320177334      1.59845789285798     -0.14013404269478
  C          -0.98263529924394      1.76732544166422     -0.34265624589395
  O          -1.72206626092888      0.32560108688087      0.61808965783882
  N           2.38853496767961      0.23303604299327     -0.36229579206595
  H           0.68115081569177     -0.01816965527799     -1.51279479536775
  H           0.85005693502400      2.14199946970171      0.66420129430949
  H          -1.43022328884222      1.43193392342437     -1.26641418255698
  H          -1.48930204373894      2.59274274617022      0.12967702079404
  H          -0.03174096143081      0.24905635125183      2.29995758131861
  H           0.93448556268516     -1.08411294383280      2.58519528173883
  H          -1.63970269071415     -0.94814629736497     -1.80814878744201
  H          -2.64572517765744     -1.85556195098778     -0.68972742445075
  H          -1.00843560911027     -2.42925522363424     -1.06094823713048
  H           2.80701359657676      0.88513836345135      0.28110671614716
  H           2.95537707003762      0.02609222766698     -1.16676678149327
