20
Coordinates from ORCA-job NEB E -45.553077869040
  C           0.36737362431148     -0.84212793833402     -0.43907743681677
  C          -0.89564892517651     -0.23777686130560     -0.59057492065381
  C           0.48691899294098     -1.98774347377926      0.55422897435688
  H           0.89432890799286     -1.08021024013865     -1.36178366687451
  C          -1.20384659921800      0.46618537970770     -1.90177401035153
  C           1.31788735061800      0.59430288233741      0.30947852289026
  C           0.54880042738566      0.95218152815636      1.42343171251725
  C          -0.79615991913423      1.38552084987933      1.19801031823814
  O          -1.53368112486776      0.17496569837516      0.47221256373121
  Br          3.10424211756816     -0.02046563367485      0.64433746029116
  H           1.32526864492038      1.24868483812273     -0.55474190578248
  H           0.80321956771227      0.54148643121839      2.38963150105966
  H          -0.92304823624512      2.19422937495337      0.48111667923465
  H          -1.39482699433945      1.53544287619621      2.08931180005309
  F           1.54363170460636     -2.78336756134130      0.21881795032892
  H          -0.41013217584281     -2.61393127371011      0.49738488642933
  H           0.63774803755689     -1.66357235473323      1.58740043784762
  F          -2.49592509733107      0.75822009958604     -2.03125911469521
  F          -0.53548776668907      1.64495653116869     -2.02475465797523
  F          -0.84066253676901     -0.26698115268435     -2.96139709382864
