20
Coordinates from ORCA-job NEB_reactant E -45.582743349810
  C           1.80739451804824      0.17323544212055     -0.04779199665586
  C           1.47571973737703      1.41854248834372     -0.38041643980987
  C           2.15654950854027     -0.41472567895405      1.28408954510109
  H           1.81630175300996     -0.56131592292792     -0.84019076443121
  C           1.12070935681440      1.74308009371438     -1.82422082536041
  C           4.13143160255559      3.80735455306578      2.06581708416822
  C           3.43584848465803      2.84377685455154      1.48850139726594
  C           1.94248496280877      2.73518728448980      1.59395002444556
  O           1.33446166122933      2.56835755490498      0.32679732420111
  Br          6.00903322052438      3.91754114359796      1.94697626289585
  H           3.69319737160734      4.58912217325943      2.66602975032612
  H           3.92690099974959      2.09648825110533      0.88070952764788
  H           1.51624610966023      3.66639878046539      1.97524012257469
  H           1.66289628367767      1.91858156409106      2.27055968891065
  F           2.58972041434124     -1.70151940028147      1.10361535644858
  H           1.27912163209823     -0.47930028466568      1.94126928748632
  H           2.97058670148928      0.11054801566844      1.79737201046705
  F          -0.10222517135654      2.27483625985430     -1.92666321047906
  F           1.97625851705857      2.63390603714811     -2.34461208502884
  F           1.14476233610838      0.67450479044836     -2.62713206017381
