25
Coordinates from ORCA-job TS E -45.148940416930
  C          -1.18167131000935      0.17482561311326     -1.26441102957380
  C           0.32743956946080     -1.98380753623576     -0.10429089683986
  C          -0.95794316183778     -2.12399639553565     -0.50339818002059
  C          -1.68996205583158     -1.08127663108258     -1.11256029998859
  C          -0.90049359395102      0.66395167611076      0.96077297259490
  C          -0.09564537547216     -0.28196739643264      1.50883302218382
  H          -1.51456874783917     -3.00304592727862     -0.21188610683185
  H          -2.74467297818585     -1.24970630350095     -1.28809926772661
  C          -1.98725892457868      1.25980567328983     -1.86792033629284
  H           0.81299867052784     -2.75556381106457      0.46852467942850
  H          -0.11521968655950      0.33650849156926     -1.31911938315411
  H           0.97973716083033     -1.25066922005604     -0.54307880029899
  H          -1.96335418924616      0.63428449180893      1.13369508465391
  H          -0.49888274712700     -1.07820353872267      2.11449201447231
  H          -0.47578381477320      1.60078927762562      0.64413342827169
  C           1.36315846264441     -0.09585180195681      1.62567777383795
  Br         -3.78371569950611      1.38805730388023     -1.11647862839040
  Br         -1.13340768115341      3.00199448935949     -1.68565274315977
  Br         -2.19466973530707      0.92981971134145     -3.83150725065324
  O           2.06017842705862     -0.68832999971632      2.41053546147824
  O           1.82436985774451      0.82175860361581      0.75474312356074
  C           3.20983197341977      1.13353032602214      0.80202832755679
  H           3.30445146671807      2.21848148288632      0.79208098983347
  H           3.70163352319615      0.71027635833581     -0.07567431163177
  H           3.65345058977754      0.71833506262370      1.70856035669009
