17
Coordinates from ORCA-job NEB_reactant E -40.448648797920
  C           1.76998694429246     -0.24113956885311     -0.04215321459326
  C           1.74229893448972     -1.48971813215963     -0.50621773881617
  Br          2.14739964249705      1.35666205641570     -0.98302257817716
  H           1.56420390899585     -0.03762833158405      0.99490499550918
  C           1.44281784076112     -2.65692425109940      0.39574148052610
  C           3.46897285641813     -2.32198188603625     -4.73249947789760
  C           2.36776204814317     -2.18648002124404     -4.01879144804768
  C           2.25933960273863     -1.23614411280375     -2.87111997950572
  O           1.95589281985999     -2.02328888248211     -1.72377245689629
  F           3.53913792119583     -3.16845260699452     -5.76188109717938
  H           4.39071803652725     -1.77417209775310     -4.59270515279616
  H           1.49827324490981     -2.78998064298749     -4.23103288289375
  H           1.44763344264290     -0.52224904938842     -3.05463195597917
  H           3.20101917865258     -0.69799472177343     -2.72527124842584
  Br          0.98718301261758     -2.23473381812170      2.21838321274150
  Br         -0.04142340360242     -3.66272587895226     -0.38134866656424
  Br          3.02148396886035     -3.82124805418245      0.41361820899563
