17
Coordinates from ORCA-job NEB_product E -40.454457371440
  C           2.72878275885972     -1.51350778442306     -1.24747836184464
  C           1.44629355740103     -2.22155038654367     -0.89603857851629
  Br          2.36167489087171      0.36839176384548     -0.90874734427855
  H           3.55821922227803     -1.79881594952727     -0.59508175199186
  C           1.46470931517258     -2.97540673925351      0.42555012641297
  C           3.14684704056634     -1.71363221748688     -2.71794903294427
  C           2.05996884675830     -1.43552228096696     -3.71067704000378
  C           1.87130269377645     -0.25168274153438     -4.26214336370962
  O           0.46294580996876     -2.22376277207985     -1.57422107604328
  F           3.55573343185798     -3.02665037921502     -2.81784108955501
  H           4.03406007251487     -1.09519247123552     -2.91073322286219
  H           1.43082945312842     -2.28136643830027     -3.94416368269137
  H           1.06875779879337     -0.08411791587947     -4.95767392864599
  H           2.49716751401899      0.59636009142130     -4.03617190749870
  Br          2.11931433750469     -1.87699683255526      1.88463062997711
  Br         -0.30744631456272     -3.61686221965337      0.83618671485615
  Br          2.67603957109147     -4.49548472661227      0.15085290933934
