16
Coordinates from ORCA-job NEB E -33.398558197290
  C           1.11153527510058     -0.05355981575663     -0.24987057475313
  C           0.37885374313470      1.20064605108272     -0.60803368323266
  N           0.80682274993190     -1.08472674231048     -1.29483569767306
  H           2.19253455629284      0.09244534336270     -0.26394780636872
  H           0.92630780829408      1.97244844129531     -1.13485115911052
  C           0.55183144350827     -0.39078104361359      1.13215110998917
  C          -0.73734816382002      0.32004014112978      1.23204435716560
  C          -1.63487851967518      0.51404372727027      0.05913454296292
  O          -0.91886539656745      1.18692328256816     -0.94002758954434
  F           0.45917806649471     -1.76307404271927      1.40254340195990
  H           1.25857310499726     -0.02179087120325      1.88635111739166
  H          -1.25526773815685      0.16660071776017      2.17122183050506
  H          -2.48223449290230      1.15998856673791      0.30777772746618
  H          -2.03861055098621     -0.44435401764929     -0.30103999192773
  O           1.66279041774223     -1.25506229922252     -2.12602601194365
  O          -0.28122230338857     -1.59978743873199     -1.27259157288667
