20
Coordinates from ORCA-job NEB_reactant E -45.508106334790
  C           1.70707383523145     -0.14129067645416     -0.11674758165329
  C           0.88736975442466     -0.29960742379891      0.91813280293813
  C           2.31389860613165     -1.29154152084837     -0.85363387558554
  H           1.97830337539994      0.84532819345531     -0.45130845006113
  Cl          0.24024591681360      1.09418482229734      1.73118793715564
  C          -0.23985780505252     -3.71300382752772      4.00388808203670
  C          -0.38031763879648     -3.09541672408134      2.84172758082519
  C          -0.08451988088933     -1.64663386206535      2.63248169128140
  O           0.47296457907532     -1.50736529603428      1.33296637457068
  C          -0.55957951206373     -5.13935061774495      4.26871961225804
  H           0.11837744421561     -3.18868923933803      4.87930233535067
  H          -0.73035326776056     -3.61496655943024      1.96214879362383
  H           0.60667165381953     -1.26497030782749      3.39282383332361
  H          -1.02219008792797     -1.07443835991154      2.69466169347711
  F           3.66361954006219     -1.08467680781953     -1.02374754773021
  H           1.89249632174885     -1.38828889338630     -1.86181311247671
  H           2.19322348674256     -2.22714353338734     -0.30130332598207
  Cl         -1.83813428153347     -5.22864390674889      5.52013521522623
  Cl         -1.11702533007696     -6.02494969546345      2.84574225771749
  Cl          0.89613329043563     -5.95953576388476      4.90643568370423
