16
Coordinates from ORCA-job NEB_product E -33.277253325540
  C           3.21341648047556      0.38108090862771     -1.02284374154765
  C           1.72596387333139      0.28401081163325     -1.12150607269147
  Cl          3.67670044692848      0.29154121046245      0.70422069120228
  H           3.67710920336572     -0.46766293165257     -1.53380147904195
  N           1.25458275471195      0.06134331718050     -2.59000635070009
  C           3.69421224899896      1.70062551090750     -1.65763346337405
  C           2.89281740725455      2.86915758393872     -1.16579818721419
  C           2.14392677426231      3.62477901612115     -1.94555710745879
  O           0.88422774563139      0.37004290662117     -0.29964240300607
  H           4.74613668552099      1.83031736708969     -1.39552073980799
  H           3.61605415679515      1.61113101723312     -2.74296765140507
  H           2.95185383074864      3.05576008459204     -0.10280102559062
  H           2.07290193638159      3.45294854846323     -3.00778837910940
  H           1.57863382493581      4.45433689763881     -1.55935393332394
  O           0.07745996345491      0.18474388174016     -2.77409894163425
  O           2.10230266720259     -0.21155613059693     -3.40560121529674
