18
Coordinates from ORCA-job P E -21.346123084960
  C          -1.39964643314426      0.40175897326874     -2.40801910136710
  C          -0.19031272650630     -1.68994938364222     -1.13333890751697
  C          -1.58691868698618     -1.87640600626502     -1.63051420825468
  C          -2.16808005592575     -0.87284748988252     -2.26844025393177
  C          -0.82166335493161      0.78807421807880     -1.04057926101789
  C          -0.01874164180322     -0.35172436051189     -0.38644958618446
  H          -2.07414317774521     -2.82522738110232     -1.46658482864065
  H          -3.17109221485264     -0.93303256725083     -2.66128785464031
  H          -2.02792373620286      1.20858499243563     -2.78615270682912
  H           0.11402604390090     -2.51405457879285     -0.48653008009421
  H          -0.57178409891128      0.25576362479346     -3.10760039072299
  H           0.49344827984407     -1.66023246170287     -1.98773280545123
  H          -1.64873699952004      1.07127455221908     -0.38695360454870
  H          -0.39319470736687     -0.49145884090280      0.64505538728475
  H          -0.16911442666826      1.65428429036144     -1.15696980541797
  N           1.40005027017512     -0.01167003072690     -0.40611802813797
  H           1.57610908788032      0.80975745907478      0.16275654664886
  H           1.94947857876408     -0.77460500945170     -0.02415051117757
