21
Coordinates from ORCA-job NEB E -40.028882314410
  C           0.37756814954279     -0.31267114603560      1.08657062869520
  C          -0.88140991077408     -0.78355794967095      0.66552415042583
  N           0.53568683204862      0.75586041552763      1.98844552676175
  H           1.20238948016199     -1.01102089708585      1.13796635981516
  C          -0.88519729910818     -2.21932786538827      0.13267715245701
  C           0.91612928536322      0.91061809991475     -0.71916410623685
  C          -0.34342014200911      0.97158471104934     -1.34882218744462
  C          -1.42668658517092      1.50833596041295     -0.72104220030095
  O          -1.89327832130880     -0.08519400295517      0.51913152459957
  N           1.94826910876609      0.26009241249064     -1.28154689490071
  H           1.19063175270645      1.71688779986222     -0.05175255410732
  H          -0.48509675250409      0.33989896877817     -2.21722336925695
  H          -2.39607680120579      1.49759209593474     -1.18674378757639
  H          -1.31123865899989      2.14680836304388      0.13951186919457
  O           1.60798898139240      0.79998168554337      2.57784076169660
  O          -0.34731845753507      1.57972244348079      2.13020641080723
  F           0.27155999557467     -2.47787177782741     -0.57008784522000
  H          -1.72594539812772     -2.36501634895538     -0.55009182458230
  H          -0.93265356866398     -2.94211575355225      0.95313451162314
  H           2.83103781896506      0.23153383049409     -0.79849016359920
  H           1.74706049088635     -0.52214104506169     -1.88604396285077
