21
Coordinates from ORCA-job NEB_reactant E -40.066651634500
  C           2.20574156464207      0.36300560943374     -0.85335476565024
  C           1.21208256849215      0.18742746001913     -1.74915211565347
  N           2.82663641812065      1.57293483306624     -0.48627696224583
  H           2.59713178506212     -0.49613714815997     -0.33004995373165
  C           0.55803477222285     -1.17304682358857     -1.87067307130940
  C           3.82456396755315      2.70030605383498     -3.00979938616291
  C           2.82162639244709      1.92185271144160     -3.42381551079687
  C           1.38974859996146      2.18715551289978     -3.09504148316836
  O           0.69844462578779      1.00511317555295     -2.65762654219790
  N           5.13826909244195      2.55417939799199     -3.36174858534084
  H           3.61871801013864      3.57062779651022     -2.40100532797540
  H           3.01388874317619      1.04988746719265     -4.03429506927139
  H           0.81421881284079      2.48179846568253     -3.97894036518001
  H           1.31279890953904      2.97172177371914     -2.33317255810092
  O           3.99644163333092      1.51815803791518     -0.14885645782709
  O           2.15827643073762      2.59407085876664     -0.46660060175289
  F           0.87346553485198     -1.99250014325574     -0.82832566542037
  H           0.88311613139013     -1.67305972519698     -2.79067183009687
  H          -0.53052398591558     -1.05341573065101     -1.88592559892429
  H           5.81591200480159      2.92704860935634     -2.71758908062790
  H           5.39310798837740      1.66627180746915     -3.76647906856540
