21
Coordinates from ORCA-job NEB_product E -40.049130644520
  C           2.61989440418932      0.76651035059816     -1.35112307772876
  C           1.53056602042396     -0.04982639516909     -2.04994359118233
  N           2.05800815330408      1.43055482916523     -0.15483266562709
  H           3.43124793186040      0.11534214612223     -1.01567818846693
  C           2.04977094367448     -1.41280161854698     -2.47055085329500
  C           3.19869180411634      1.82972457673898     -2.34045669653687
  C           2.19633626966081      2.89882157450212     -2.67129759961943
  C           2.44845346702308      4.18858610242767     -2.54413386037545
  O           0.42565888010630      0.35287301541603     -2.25522102906347
  N           3.66943029503036      1.10185705032419     -3.51435166679277
  H           4.07327525526968      2.27644123520125     -1.85293962545481
  H           1.25668832367132      2.55138176425861     -3.07591972619041
  H           1.72861876295340      4.93348110467719     -2.83255374081808
  H           3.37821520946328      4.55216744218884     -2.13652765693984
  O           2.52057000504998      1.07930970149808      0.90559474090206
  O           1.19299809920079      2.24787392614313     -0.31437963342833
  F           1.15825547308356     -2.05808506618753     -3.27407114638262
  H           2.20899940468075     -2.03839500290907     -1.58348398076641
  H           2.98831181831929     -1.29673765032079     -3.02636099617256
  H           4.36657087101871      1.64491820699813     -4.00893882376884
  H           2.89883860790013      0.93770270687361     -4.15583018229204
