22
Coordinates from ORCA-job P E -32.711881100010
  C          -1.34708722034051      0.34208092260190     -2.36118197516551
  C          -0.08737468628871     -1.68347897446518     -1.04342245789919
  C          -1.47245963480353     -1.92883925844061     -1.54674579998213
  C          -2.09067305640976     -0.94814433555469     -2.18475192270977
  C          -0.74543037351936      0.78742888506974     -1.01578638970850
  C          -0.01820682901957     -0.35169537227989     -0.27184873117289
  H          -1.93565750002190     -2.88696898248624     -1.37377309060494
  H          -3.08953509880715     -1.03211349040956     -2.58141899259124
  C          -2.25151403289960      1.43080501098116     -2.91891837301259
  H           0.24820727914644     -2.49565848576436     -0.39883656178548
  H          -0.53151716469076      0.19435236463444     -3.08092684085371
  H           0.59794219346249     -1.62733657597661     -1.89522489897696
  H          -1.55764260582724      1.16876816409714     -0.39343609670572
  H          -0.51998734364387     -0.50949352953021      0.68802399609676
  H          -0.05740441383006      1.61398085215993     -1.19737375280000
  C           1.43751973156511      0.01487360503920      0.00574610186154
  F          -1.56945373409390      2.59169940033754     -3.09540616843129
  F          -2.72600425619887      1.09192239460661     -4.14400164938498
  H          -3.11792822492132      1.64998744357549     -2.27498051138007
  H           1.97049972671151      0.19169632272710     -0.92608434975337
  H           1.93787819906009     -0.79021370644943      0.53942191098630
  H           1.49607904537045      0.91492734552655      0.61326655397375
