22
Coordinates from ORCA-job R E -32.616507045600
  C          -1.13157453544019     -0.06300618240415     -2.93142137732435
  C          -0.33075825837766     -2.82993951017992     -2.02559500495850
  C          -1.27847335030524     -2.06951182169594     -1.48812578777639
  C          -1.75781099050820     -0.80848123123314     -2.02374393243557
  C          -1.19063960723311      1.25202955145709      0.51238723541989
  C          -0.13780528702277      0.46277069384057      0.60998284752928
  H          -1.76635575842277     -2.39223560972449     -0.57811555698737
  H          -2.69701277819699     -0.45756320434118     -1.61531415766474
  C          -1.67162042018155      1.23926955229154     -3.41650839443273
  H          -0.02643237000918     -3.75564670794289     -1.56881950496390
  H          -0.17859771457682     -0.33978107554306     -3.35485563031359
  H           0.16229006098203     -2.56822397304047     -2.94599464191111
  H          -2.04436909146434      1.15231040797665      1.16145272361696
  H          -0.11118202279481     -0.32045748142495      1.35748293251482
  H          -1.23458199180904      2.04145113573078     -0.22003073940586
  C           1.07323001649273      0.56147441191886     -0.25370888646807
  F          -0.82396510536165      2.26112805510595     -3.10847310865239
  F          -1.77543135029007      1.25368864971722     -4.77316856237609
  H          -2.65961664637999      1.49188153282739     -3.00190989335705
  H           0.95441363986436      1.34246681415410     -0.99985276346350
  H           1.25308040485512     -0.38912203589394     -0.75526261248554
  H           1.94933315618012      0.78472802840399      0.35487481589578
