22
Coordinates from ORCA-job TS E -32.601351675240
  C          -0.75167328974063      0.32914496715225     -1.18621849986586
  C           0.52481701567565     -1.86366038868125      0.11869365152645
  C          -0.80453567932294     -1.85847614869179     -0.14262506971265
  C          -1.43604789897587     -0.78486123706877     -0.80684066710557
  C          -0.06210551562908      1.00280648441156      0.88834107900663
  C           0.72675216387528      0.04673459566773      1.43912540845633
  H          -1.44432514441207     -2.59161217514420      0.32864004096861
  H          -2.51753104119751     -0.76434552892349     -0.81770142682668
  C          -1.47415940784559      1.49490575896065     -1.78253089637715
  H           0.95129997428150     -2.63743614352660      0.73591833030928
  H           0.29630095909128      0.29190660903370     -1.43285355820581
  H           1.21918269099773     -1.32549027328564     -0.49747565891733
  H          -1.09085438689760      1.10424807705801      1.18661964820786
  H           0.32189209075427     -0.60344561581409      2.20009552049543
  H           0.37780327071820      1.84982826958698      0.39113818737140
  C           2.22316483281481      0.13948610807427      1.37920803370609
  F          -0.74984690493939      2.63852627275365     -1.68061821889932
  F          -1.66864292147596      1.31334915423625     -3.12319183105488
  H          -2.46292295665491      1.68289450617095     -1.33554197311885
  H           2.55014014986938      0.61693329245710      0.45830638421537
  H           2.69874320360597     -0.83371377504568      1.46714710527095
  H           2.57254879540748      0.75227719061838      2.21236441054969
