24
Coordinates from ORCA-job P E -34.791934175670
  C          -1.47026283047814      0.37906288597404     -2.49095577505494
  C          -0.07096757155400     -1.57381298060321     -1.17153421215283
  C          -1.35489617467448     -1.94804746255403     -1.83083867951446
  C          -2.02959175080229     -1.01501513147589     -2.48535728228882
  C          -1.11354512497530      0.76841906658035     -1.04044892213364
  C          -0.21830314949227     -0.27275066652737     -0.33662508039928
  H          -1.69462961680530     -2.97028295237293     -1.77178441586164
  H          -2.94984430172091     -1.22181237966907     -3.01174560032370
  C          -2.42978327698684      1.41267198698987     -3.05470686239687
  H           0.29942943403602     -2.37708125381381     -0.53334059865860
  H          -0.55896100931229      0.41176248411176     -3.09896746313072
  H           0.67270374095162     -1.39266288771617     -1.95321495157081
  H          -2.03865640811157      0.88078083251419     -0.47084502517546
  H          -0.70253172036866     -0.54733256876728      0.60781527628386
  H          -0.60937926072996      1.73420483654957     -1.02828484687771
  N           1.04489079834898      0.33356766742576      0.04775857127673
  O          -2.11208389418041      2.25947985546295     -3.83849602025043
  O          -3.68732741767216      1.33516306368960     -2.58713801128160
  H          -3.79610570472109      0.59439497065766     -1.97391336993246
  C           1.95916859376183      0.70687612413833     -1.01355298255622
  H           1.52558376314335     -0.26589485160613      0.70999764463613
  H           1.44300215505100      1.33235072026573     -1.73907035101906
  H           2.41055195601123     -0.14314007999331     -1.54511136323380
  H           2.76392877128163      1.29255872073940     -0.57061967838367
