17
Coordinates from ORCA-job NEB_product E -37.513308810860
  C           3.09267762162465      1.04089738760638     -0.30471080881676
  C           1.62138493583169      1.13793620152818     -0.54397300956082
  F           3.34226465940759     -0.03277453120758      0.51444429064494
  H           3.64736570963962      0.87895934408370     -1.23659813496415
  N           1.27581932284870      2.13688559994652     -1.67722971348586
  C           3.64803500710489      2.33152538556607      0.40933581135066
  C           2.78948494927911      2.62867837061356      1.60914916038369
  C           1.94054143250114      3.63635153402031      1.66792359120704
  O           0.72296886859963      0.61023718263673      0.01363789195582
  O           4.98820989974364      2.13669037712225      0.72197295561026
  H           3.61912804248189      3.15106199358901     -0.31541841192803
  H           2.90550427625894      1.94175871511011      2.43701530106811
  H           1.82042785799160      4.32917050166393      0.85088746538056
  H           1.33454033424738      3.81377038262384      2.53872144434296
  O           0.10701046954859      2.30449394826275     -1.87796200531640
  O           2.20411125421197      2.65929484984018     -2.24693630852210
  H           5.06542535867897      1.44786275699407      1.39644048065008
