20
Coordinates from ORCA-job NEB E -32.603686928500
  C          -0.83229506740235     -0.49839793180955     -0.21399274302242
  C          -0.03802219021840     -0.33744982126852     -1.26819022322227
  I          -1.19696713377900      3.27906877361196     -1.05650596952973
  H          -1.90030563327255     -0.51292818937071     -0.34356626060991
  C          -0.51284438045845     -0.20401540380327     -2.67707629297283
  C          -0.31616747209745     -0.70940719869777      1.18372650221273
  C           1.15529791055161     -0.71760731900980      1.19843282905908
  C           1.88160795680164     -0.09977291149626      0.08659191707526
  O           1.32675804059343     -0.29127342770238     -1.19018860735712
  C          -0.82386338608364      0.38681118208686      2.16908324486217
  H          -0.71239748989039     -1.65188577793862      1.59043926229307
  H           1.68621688924878     -0.94794602554615      2.10695827319870
  H           2.92284951950757     -0.43183551285497      0.02744477005874
  H           1.89640606753587      0.99580661955406      0.29639871329866
  H           0.01067442521881     -0.91875261505386     -3.30817303328061
  H          -0.28554604386117      0.79530596055589     -3.04312725958056
  H          -1.58259639885118     -0.37036494291258     -2.73882237715753
  F          -0.12868691434828      1.54789986738277      1.99749050536498
  H          -0.67292291680668      0.08094189449454      3.20936015832246
  H          -1.87719578238818      0.60580277977838      1.97371659098713
