20
Coordinates from ORCA-job NEB_product E -32.657802555220
  C           2.23113791818854      0.79367467272933      2.22565943171746
  C           1.01908740220145      1.70452602194401      2.32876431383207
  I           1.63644859748672     -0.70086332434755      0.75914443035236
  H           3.07902068533783      1.30933199600485      1.77243741979682
  C           0.94118330379594      2.76660214950799      1.26763449635977
  C           2.61949676268738      0.12863869081916      3.54123084364704
  C           3.72778874768119     -0.86435286051316      3.34308921203468
  C           3.64078327400064     -2.13934022248729      3.66852947998807
  O           0.20351699082643      1.57426674678087      3.20289034321612
  C           3.07179046388734      1.21767089876309      4.52445191524877
  H           1.74248584552229     -0.36947871605570      3.96738307757191
  H           4.63531640881677     -0.46100046027641      2.91118790113215
  H           2.74727852790403     -2.55359700604393      4.10522469407656
  H           4.45825845579895     -2.82135108425597      3.51287945187351
  H           1.64438495342544      3.55926706315080      1.52365378670900
  H          -0.06040947032682      3.18724406665648      1.23593601243585
  H           1.21038350259701      2.37388249666237      0.29026856306811
  F           3.42701147761642      0.65141022626819      5.71839270743012
  H           2.26371135985650      1.92440993326307      4.73753851998949
  H           3.95582479269594      1.74985871142979      4.15270339952014
