17
Coordinates from ORCA-job NEB E -30.299812364790
  C          -0.99294384301644      0.72662083322182      0.11824540403737
  C           0.26445813589402      1.27480879219446     -0.20346761340947
  N          -1.30728077108800      0.38507784027059      1.42568998693687
  H          -1.84954478006964      0.96980338733466     -0.50179651883626
  O           0.47747011585021      1.76242338004032     -1.47361330040797
  C          -0.42265199835994     -1.12194544838991     -0.64858562479162
  C           0.66497134512060     -1.43677194334592      0.15553919102464
  C           1.83137999606691     -0.67654010512528      0.02062117805444
  O           1.28548405434078      0.96822606611527      0.47550553989004
  Cl         -1.88836381572973     -2.02643839485080     -0.46584987992505
  H          -0.26923130009789     -0.80850740421350     -1.67417363266397
  H           0.47739142422924     -1.95595850015748      1.08346365885455
  H           2.15599289575682     -0.39423673657585     -0.97178160155166
  H           2.63097071163598     -0.82685330325105      0.72877181409463
  H          -2.17540079105223      0.74075618239570      1.78839470088443
  H          -0.52473925552768      0.47001790645704      2.05797829303915
  H          -0.35796212395300      1.94951744787994     -1.91494159523010
