17
Coordinates from ORCA-job NEB_reactant E -30.327691816890
  C           1.32619045657382     -0.06131995844890      0.09524760708507
  C           2.40602864833102     -0.69947373613046     -0.35902616825967
  N           0.03257628955489     -0.26236778175385     -0.41701098509449
  H           1.42019604503533      0.73253562916178      0.82014016792134
  O           3.69097697254920     -0.42972674191350      0.05497087176198
  C           3.13284942993737     -4.83383190181236     -0.35027250641423
  C           3.37358446553125     -3.53931824625760     -0.24794251400194
  C           3.34615318961355     -2.60572038654893     -1.42262809103409
  O           2.29197358258757     -1.66210852476726     -1.32533613614283
  Cl          3.15371393603084     -5.89698062269816      1.00060010050466
  H           2.92187319199406     -5.32986338178155     -1.28539496044964
  H           3.57362980318708     -3.08260406134216      0.71044474910901
  H           3.14724205307833     -3.14774945177243     -2.34925814408221
  H           4.30738375769558     -2.08339209376490     -1.49834916158528
  H          -0.67013725104548     -0.32196161096026      0.30956445302406
  H           0.00869877496331     -1.08052281776379     -1.01272626445610
  H           3.67436665438228      0.33120568855434      0.64227698211437
