19
Coordinates from ORCA-job NEB E -40.819923769570
  C           0.77956133462315     -0.21993875190235     -0.97424223507014
  C          -0.44125723718264     -0.89667620122629     -0.92433289474199
  H           1.66680771990782     -0.76896152136999     -0.68905704268361
  H           0.92759307975492      0.46664574890141     -1.79864992527876
  C          -1.63057869811750     -0.34061966417578     -1.68925440826819
  C           0.63204733116621      0.81890782760589      0.60701177829733
  C           0.35352373668977     -0.12623292760505      1.59716321625407
  C          -0.84594449091465     -0.89531850297997      1.46551754890269
  O          -0.70521028767882     -1.67817577376602      0.09255795045731
  N           1.93329495851763      1.47436338698281      0.70224884293893
  H          -0.13039196990665      1.52211122766546      0.28530293244956
  H           1.19516880313490     -0.54957674582721      2.12829457024192
  H          -1.75958432205533     -0.32217697333773      1.32054510821025
  H          -0.97485809007238     -1.69619956422253      2.18440901626843
  F          -2.08574219360677      0.80822644544263     -1.09674742138468
  F          -1.28521703753822      0.00679938306016     -2.94645127729840
  H          -2.47153728460706     -1.04705227703026     -1.73131763210702
  O           2.87031153651499      0.79850401598020      1.05175677497615
  O           1.97201311137064      2.64537086780462      0.41524509783615
