19
Coordinates from ORCA-job NEB_product E -40.856874623880
  C           3.24252812862434      2.38483008782800      0.03123140377868
  C           2.00667651901989      1.61436397392608     -0.34575250509003
  H           4.08642654979863      1.69454925584588      0.09300695192103
  H           3.44004943468119      3.12614176461764     -0.74857435819147
  C           0.73723159947594      2.48094918316956     -0.55327481639287
  C           3.05646632799722      3.09386604908696      1.37643726345179
  C           2.77126841797292      2.11771444863298      2.48537689415951
  C           1.80087693072693      2.28034856811719      3.36401082776412
  O           1.94620276623534      0.42754059341651     -0.48110398657089
  N           4.33562154992285      3.77778705716915      1.75547360445862
  H           2.29096386392522      3.87396151085885      1.34310927339189
  H           3.43808523972491      1.26743194970876      2.52511495639655
  H           1.13501124227801      3.12600988116898      3.32955435025814
  H           1.62702158905654      1.56249419835812      4.14583141586909
  F           0.11345173894699      2.66100987031870      0.63574159745521
  F           1.05354663565809      3.71441505237477     -1.00865840653057
  H           0.02743144526420      2.01233896269173     -1.25011054577022
  O           5.36828186299232      3.24084468755459      1.44859192841457
  O           4.22505815769849      4.79970290515558      2.38029415122686
