22
Coordinates from ORCA-job R E -44.743131678160
  C          -1.32376967696015     -0.14842273766745     -2.90012988168857
  C          -0.13776354768095     -2.79966763586077     -2.09027745888109
  C          -1.41386299258527     -2.44352949945717     -1.98741940035031
  C          -1.93634508924914     -1.10577093497128     -2.20304761644802
  C          -1.02349617177853      1.69201570402168      0.57294144439336
  C          -0.33154847911838      0.60222262179341      0.30532928413012
  H          -2.15614689024835     -3.17243193621768     -1.68994960147364
  H          -2.90431182249200     -0.90639014037024     -1.76263431773368
  C          -1.84972382027665      1.21452673879259     -3.12964485567407
  H           0.17091266175348     -3.81285555079872     -1.90013098085926
  H          -0.37132201333173     -0.32943313697670     -3.37534361058084
  H           0.63542861404065     -2.09391898762843     -2.33916019068732
  H          -2.07494281486470      1.64623746896715      0.79454138374627
  H          -0.77880293397388     -0.38128947704071      0.29632055294317
  H          -0.57065596948551      2.66969742563689      0.57678984269222
  C           1.13306049799666      0.61774420026613     -0.00282716845567
  Cl         -3.26988921598896      1.61269812421799     -2.15667367205397
  Cl         -0.58153924937040      2.42460996062251     -2.76857958778035
  Cl         -2.29493596672267      1.40478428705635     -4.85939671599064
  F           1.81431579948115     -0.18912361552735      0.85043754204768
  F           1.37830816884099      0.11738491537205     -1.24732141901888
  H           1.58169091201437      1.62159220576976      0.04535642772347
