22
Coordinates from ORCA-job TS E -44.728511522570
  C          -0.70070246749490      0.38156166681846     -1.18588694153149
  C           0.66406161377767     -1.82816696679661      0.02285565797608
  C          -0.65204039589951     -1.87834674426734     -0.30052107166670
  C          -1.32108720160702     -0.80436448491062     -0.92290238266310
  C          -0.18236472456243      0.91733868494574      0.99045295514509
  C           0.62488145443985     -0.04305088654333      1.50518780387656
  H          -1.26439089481100     -2.68433426407842      0.07851398537851
  H          -2.39713127639846     -0.86080888326147     -1.00665801913905
  C          -1.45315202981914      1.53146221703731     -1.75358038700031
  H           1.11228450671265     -2.61663888479217      0.60478617156782
  H           0.36376235032218      0.43273607653494     -1.34816179406187
  H           1.35014836424541     -1.20985743388360     -0.52575710467888
  H          -1.22984352970477      0.93001878885236      1.22723260258006
  H           0.26463229233648     -0.78282340342732      2.20023955301683
  H           0.23787179365024      1.81877874551291      0.58070721977186
  C           2.11568425775216      0.15480299836467      1.52259485326010
  Cl         -2.98212641729604      1.82373620942260     -0.89648370544522
  Cl         -0.49520414556569      3.02728821371023     -1.71156654103620
  Cl         -1.85277552714629      1.19888974594444     -3.47996698805697
  F           2.78040819659273     -0.99753062357015      1.78314327605566
  F           2.58402641227170      0.60284907951356      0.32843059488507
  H           2.43305736820415      0.88646014887381      2.28734026176616
