18
Coordinates from ORCA-job NEB E -25.998331682560
  C          -0.64342412833614      1.02865725674026      0.03134334935616
  C           0.42435864634250      0.84502486659750      0.88953671850630
  C          -1.95596259855617      0.34468310010433      0.29033916877123
  H          -0.71504264694716      2.01274266070365     -0.41625664726144
  O           1.42387948767590      1.78198011884437      0.87511171454825
  C           0.16816324304813     -0.15412002992499     -1.44541604038496
  C           0.36595595998518     -1.34430618763715     -0.78650310748969
  C           1.29176038465201     -1.34418604575030      0.30733161082204
  O           0.70402020592580     -0.31818314813144      1.40488003421549
  H          -0.59783548853304     -0.09036703678760     -2.20292314299251
  H           1.01048729742823      0.50168953617290     -1.61487582140009
  H          -0.42104207757110     -2.08362762315429     -0.77962481739704
  H           2.26621738886181     -0.90673892547607      0.09389584190686
  H           1.37313550211519     -2.26120323817016      0.87885352481677
  H          -1.79486542057337     -0.62080581349660      0.76129689551075
  H          -2.51481946587488      0.20757872174210     -0.63173071257425
  H          -2.55719623778785      0.95889068914726      0.96128320183275
  H           2.17220994814497      1.44229109847624      1.38345822921339
