18
Coordinates from ORCA-job NEB_reactant E -26.019994993940
  C           1.39277754411936      0.14398875906826     -0.05218049417615
  C           2.48371317462822     -0.49016086395547     -0.47837116620772
  C           0.42025657480315      0.82825699541740     -0.95824732604084
  H           1.19572430793834      0.18924138369121      1.00889467470692
  O           3.36710160003863     -1.11797924374440      0.36196987273592
  C           3.45011076521616     -3.67873481570186     -3.23102003173919
  C           3.35309528645509     -2.86639396341285     -2.19673849271316
  C           3.82445976897993     -1.44252460030377     -2.19863942727726
  O           2.81102846726043     -0.53406274825500     -1.79042598644361
  H           3.11033119327490     -4.69927664137701     -3.18624192566734
  H           3.88401820071320     -3.35942094253904     -4.16442336552272
  H           2.91245853285407     -3.19801744217349     -1.26659717935093
  H           4.09054463369035     -1.12348951905363     -3.20902511440413
  H           4.70033739840816     -1.34378128126138     -1.54404650571518
  H           0.69259359190075      0.65041302958242     -1.99370647002909
  H           0.41436992686221      1.90323203953858     -0.77587237948193
  H          -0.58902240467695      0.45518643596797     -0.78478768520215
  H           3.08170143753402     -0.98677658148793      1.27145900252854
