18
Coordinates from ORCA-job NEB_product E -26.048863234120
  C           2.54647429862362     -0.91718140035750     -0.28932767704531
  C           1.11038018947433     -1.36876078582219     -0.54419081866769
  C           2.60865367353189      0.60505252084641     -0.21847393223139
  H           2.85378916371110     -1.32876406775957      0.68141767421417
  O           0.92676394705937     -2.70227747126774     -0.55571660308285
  C           3.47719350029509     -1.48933393467739     -1.38247502383041
  C           2.89292674045170     -1.32177792165301     -2.75196199959134
  C           2.60018858486453     -2.32257311613293     -3.56000811967178
  O           0.18916225440266     -0.62600049216632     -0.71001105366082
  H           4.43155195275463     -0.95912208128675     -1.32535212246177
  H           3.68109141185850     -2.54914549841372     -1.20188095367778
  H           2.70332213115552     -0.30269147505553     -3.05712047235668
  H           2.77710546016082     -3.35076604775230     -3.28610080871425
  H           2.17439908489819     -2.16052084706635     -4.53459404159645
  H           2.27392895345011      1.04348899245905     -1.15383285578825
  H           3.62390648093426      0.93547394345747     -0.01209129310530
  H           1.95333678872273      0.96690648364353      0.56939939698800
  H           1.75332538365095     -3.19050680099516     -0.45047929572010
