19
Coordinates from ORCA-job NEB E -29.580566223930
  C           0.24876342375292      0.77162015246142      0.75980149953136
  C          -0.89967835837735     -0.01723889383577      0.75634833189356
  C           0.29732564267194      1.98884624370614     -0.12249640938037
  H           0.75547157784508      0.90619572505981      1.70908581433617
  N          -1.14504645429149     -0.88774191007201      1.81126177578400
  C           1.38891333549808     -0.53365172943932     -0.27828974310879
  C           0.65157158294664     -0.73720262117493     -1.42750595147718
  C          -0.65432438793251     -1.30723146087891     -1.27543532628002
  O          -1.50664736297630     -0.28390437990765     -0.37062721181473
  H           2.32462920697995      0.00045873462781     -0.34645906594342
  H           1.36324432745653     -1.28990956777811      0.49451222598330
  H           0.83100886603322     -0.10875550928818     -2.28755933841796
  H          -0.70172888437859     -2.21238798896112     -0.67244326814580
  H          -1.26194672483684     -1.37723562135051     -2.17032481115927
  F           1.58887856047840      2.42757139388925     -0.29154702742228
  H          -0.24619983011544      2.82530882064253      0.33724874911398
  H          -0.11304066904559      1.78207846829537     -1.11416388845589
  H          -2.02462816918198     -1.37700091062638      1.75568332208481
  H          -0.89656568252666     -0.56981894536942      2.73291032287852
