19
Coordinates from ORCA-job NEB_product E -29.642033938860
  C           2.69942190125308     -0.96096966803175     -0.12351193684975
  C           1.24129788052303     -1.37002746301212      0.07492347314036
  C           2.75051831271072      0.48409049915853     -0.61138049314237
  H           3.21336200086641     -1.00769832066960      0.84310702690277
  N           1.08358226577645     -2.57578560646336      0.66458139559445
  C           3.40164722192496     -1.91979569556701     -1.10864621649841
  C           2.53433233458197     -2.25406741354224     -2.28205530526824
  C           2.18708161327477     -3.48126344857146     -2.61984505683585
  O           0.30414718422797     -0.67709413732587     -0.24699393287051
  H           4.31613770169049     -1.43056818418249     -1.45588150211611
  H           3.69191987286631     -2.83894768221816     -0.59512428375640
  H           2.18396916431763     -1.41296288280278     -2.86351206442079
  H           2.52159866428647     -4.34230425598791     -2.06291551203982
  H           1.56288402278928     -3.68279550306266     -3.47288158195642
  F           4.05040802857823      0.93188950053028     -0.61318583548211
  H           2.18180674782292      1.14068194486879      0.05248732337254
  H           2.37296375519105      0.58148423474522     -1.63172997980338
  H           0.15104307906010     -2.93896601762028      0.77150535138484
  H           1.85987824825820     -3.17889990024513      0.86605913064520
