24
Coordinates from ORCA-job R E -37.481242429730
  C          -1.52441479594752     -0.33226140203628     -2.50271740329362
  C           0.30779936560032     -2.73186034110481     -2.47292456768052
  C          -0.99135149944412     -2.74606905626736     -2.76295164732009
  C          -1.89075586083645     -1.61147923455978     -2.67011785342747
  C           0.11826334007395      2.43593780739647     -0.31914020595494
  C           0.25241083289505      1.43901811194564      0.54979985616469
  H          -1.45592606695529     -3.66829159705496     -3.09087691982062
  H          -2.94341978289499     -1.87225612265811     -2.74026873779000
  C          -2.46931127578581      0.79271327577046     -2.36280053666347
  H           0.90942625705019     -3.61866738669371     -2.57711909529832
  H          -0.48761431416833     -0.06137108249473     -2.37506222296557
  H           0.80896088360556     -1.85174953711447     -2.10824690236112
  H          -0.39041673229600      3.34999782754467     -0.07425505483962
  H          -0.14724169209823      1.50652453488926      1.55109144680516
  H           0.52062624593995      2.35243328314751     -1.31470493974491
  C           0.93748846226267      0.18501405148444      0.19688940147676
  O          -2.19261854794091      1.81568487877039     -1.79252595861319
  O          -3.69426835327918      0.63616681653563     -2.90933175083292
  H          -3.77625257561376     -0.20430916832485     -3.37831476220718
  O           1.34962322691207     -0.05377535012935     -0.92017206115265
  C           1.07552593475839     -0.80045994397028      1.33011630585328
  H           0.08270208756332     -1.10459744212725      1.65869339137444
  H           1.58360833130912     -0.33301922360129      2.17067371389763
  H           1.62934652928998     -1.67786369934724      1.00796650439425
