16
Coordinates from ORCA-job NEB_product E -26.279128724590
  C           2.69468318080200      0.83426608947363     -0.97456646458712
  C           1.39555258740933      0.08330954858963     -1.18015844038535
  N           2.84240965982485      1.30525720287723      0.38290071127440
  H           3.52436261618084      0.15214283884797     -1.19515772452384
  Cl          1.30872996970400     -0.72436515556068     -2.75014310086358
  C           2.75632932048271      2.01486951692115     -1.97167402951701
  C           1.52942015623020      2.87150551211955     -1.90169894131447
  C           0.63595037423920      2.95788518956631     -2.86851921700349
  O           0.49269141295376     -0.00328100809824     -0.41715754238982
  H           3.63666141400571      2.60333162427680     -1.70791748500056
  H           2.87699351007052      1.61961073479576     -2.98006206324390
  H           1.40036442492452      3.43495118813726     -0.98744581752050
  H           0.74367332226416      2.41065858778517     -3.79084379547885
  H          -0.23865926407158      3.57939006755748     -2.78335401066423
  H           2.86134071972846      0.52849780885671      1.03429453212214
  H           2.05859659525131      1.89637025385426      0.63830338909619
