16
Coordinates from ORCA-job NEB_reactant E -26.257284420740
  C           1.85974923364810      0.02342388232492      0.17595734601116
  C           1.94732818190492      0.29697986206932     -1.12778871309383
  N           0.94626670647390      0.62775219369463      1.02342463828144
  H           2.55638843763617     -0.65937917856525      0.63435017812398
  Cl          3.22693928791271     -0.43850521176960     -2.07391321312976
  C           2.55508693670053      2.97528778108880     -4.19099940478816
  C           2.66448191717551      2.59720373640730     -2.93135583671203
  C           1.49258814239408      2.45837796345392     -2.00719169885147
  O           1.08603065131362      1.09287530612428     -1.80362759705604
  H           3.41288604571975      3.05510021761015     -4.83645189910148
  H           1.60109980096202      3.22239451291160     -4.62768431303394
  H           3.62756448135569      2.34217561585489     -2.51190036935231
  H           0.60686449002946      2.93293572363177     -2.43553716864085
  H           1.72197616921939      2.90970860837036     -1.03226254466775
  H           0.62967563241608      0.04871584359738      1.78614340602655
  H           0.18827388513805      1.08485314319552      0.53503718998451
