27
Coordinates from ORCA-job NEB_product E -46.213897771010
  C           2.82252968863740      1.32325089160972     -0.42359956251694
  C           1.58262119707511      0.74069146948776     -1.06910017958397
  O           2.66144047800850      1.44629129377672      0.96036550720323
  H           3.70767016814202      0.70450599957200     -0.65354323283902
  C           1.80213390799721     -0.26458184880850     -2.19992060116886
  C           2.98381023602514      2.73363888340689     -1.06197935942638
  C           1.89413498329854      3.63498772239948     -0.56542087665450
  C           1.07996560325437      4.29950158169330     -1.36304666678689
  O           0.46060488309800      1.00085275212343     -0.74447242631858
  C           4.39049260028253      3.30784715375976     -0.81625152860103
  H           2.87637650901812      2.62123596917178     -2.14755507863177
  H           1.80148571973389      3.69647798578968      0.50735298949548
  H           1.15253562199407      4.23583080922202     -2.43767789026678
  H           0.30809286958610      4.94193661505641     -0.97706584889096
  C           2.63195491631107      0.22261644604740      1.65587994263451
  H           3.52446291197118     -0.37856423546302      1.44243306160129
  H           1.73985228953917     -0.36492290623426      1.41309622889908
  H           2.61055000386801      0.48024776467062      2.71231626145688
  Br          2.23974550502459     -1.93831443056342     -1.27963007957412
  Br          0.16227391581326     -0.48813214417063     -3.19978608898201
  Br          3.24734264228939      0.15789673864973     -3.41104931700258
  C           4.67632855972856      3.71172906086470      0.62384517696010
  H           4.49574591406018      4.18365559756502     -1.46052943997980
  H           5.12572046025370      2.56853007629196     -1.14442779342838
  H           4.04630441769861      4.54572721547272      0.92005488092207
  H           5.71568892645841      4.01896270249124      0.71577206915266
  H           4.49543507083284      2.88480083611747      1.30303985232728
