27
Coordinates from ORCA-job NEB_reactant E -46.217594987700
  C           1.63343121894614      0.16481965340148     -0.34019584032052
  C           1.44472578597833      0.85721978328627     -1.47110261475314
  O           1.20292911189017      0.55592178454288      0.88368163051197
  H           2.15952398521487     -0.78342957034484     -0.38696290585095
  C           1.91970571352444      0.27911666679593     -2.76196443596392
  C           3.32353392546228      3.20709302991928     -0.77385431953099
  C           2.22386426466212      3.27728617439392     -0.04203788744747
  C           0.84552532245936      2.97375997217248     -0.55731636815073
  O           0.84177869905831      2.06523552408860     -1.64836162807709
  C           4.70573272313374      3.47307893563339     -0.27714415916811
  H           3.26055674361055      2.95938745824892     -1.82630811139079
  H           2.26971538329084      3.54483233971612      1.00403226348684
  H           0.37539691550713      3.87393423755506     -0.96786715801137
  H           0.21905723089427      2.58578214996839      0.25267508125837
  C           1.77829155358102     -0.13767134687567      1.96939010513061
  H           2.84832094085717      0.07711802681341      2.04950084164765
  H           1.63238757844874     -1.21756330894814      1.87020853753966
  H           1.26698095415570      0.21863143479487      2.86113005761391
  Br          1.05107612705397     -1.43029530787876     -3.16540224184504
  Br          1.58852041010278      1.48332038797953     -4.22242208411854
  Br          3.85980974245009     -0.06993359496502     -2.70753616460525
  C           5.36789025229382      4.59178143543578     -1.08002259176266
  H           5.30109342485737      2.56109865795630     -0.38536936107912
  H           4.67632755098874      3.73931255049894      0.78123924208133
  H           5.41751957551250      4.32547614911875     -2.13325557126631
  H           6.37881212022651      4.76791629307706     -0.72102892042835
  H           4.79939274583906      5.51407048361506     -0.98380539550000
