17
Coordinates from ORCA-job NEB E -30.958153048220
  C           0.05082210005760      1.19202327508239     -0.82320083551169
  C          -0.92860274782487      1.03811201910427      0.15397281542383
  O          -0.24107781750718      0.83049937182868     -2.10495469604658
  H           0.81918535994994      1.95164362122421     -0.77345524625658
  O          -0.72261609632388      1.56589092029791      1.40489556736295
  C           1.16973759338752     -0.55477685988542     -0.15849192775671
  C           0.28172061621485     -1.26113260052764      0.64383797109153
  C          -0.99478464105193     -1.56079811131704      0.18461972205440
  O          -1.78939846618794      0.11882796958715      0.03865687281106
  O           2.33113896274680     -0.06241378947610      0.33581479109670
  H           1.25896201397461     -0.76992990236853     -1.21530555271010
  H           0.42451585270928     -1.18702733785769      1.71697731023760
  H          -1.70074645712195     -2.02024451825450      0.85575709004556
  H          -1.13229759355190     -1.80533989446721     -0.85786171529261
  H          -1.06821110810023      0.32367397124457     -2.07815417439947
  H          -0.06131134182556      2.26603964871755      1.37423700200005
  H           2.30296377045484     -0.06504778293260      1.30265500585004
