22
Coordinates from ORCA-job NEB E -46.254447222040
  C           0.58218970121328     -0.16411131084963      0.66089096209067
  C          -0.78263031848566     -0.29843307728702      1.16850100927093
  N           1.10687841274430      1.14967889409293      1.11666527385617
  H           1.27164537796571     -0.94464428660066      0.98741521385478
  C          -1.25659927310800     -1.58971016113798      1.67932264697315
  C           0.54493146193588     -0.07530233450768     -0.96734165599687
  C          -0.42541358408695      0.95681558484069     -1.28934507224293
  C          -1.74828915362481      0.79595778455666     -0.82075502295261
  O          -1.65533663439086      0.57126686767428      0.80684651546526
  C           1.94764438764539      0.16607800074256     -1.50193443485058
  H           0.19862685866953     -1.07508996545855     -1.24914030951398
  H          -0.08421800386624      1.92233557537833     -1.62358107122780
  H          -2.24247732580537     -0.14549264562157     -1.05367859815545
  H          -2.40743756671277      1.64967279393484     -0.91472953284711
  O           2.04040282838675      1.11385619516277      1.87681643913644
  O           0.53361128322878      2.13093312712359      0.72013687950978
  Br         -0.06352796203102     -2.45080940374637      2.92076679134923
  Br         -3.02831240169966     -1.45782443308278      2.40864789760490
  Br         -1.42020671006378     -2.92565620461544      0.01251614225934
  H           2.64946689485433     -0.55520391182412     -1.09059754302533
  H           2.29586591685806      1.16843422581151     -1.26404626464247
  H           1.94318581037310      0.05724868541364     -2.58337626591553
