22
Coordinates from ORCA-job NEB_reactant E -46.271607295550
  C           1.58106632308188     -0.04525948083227     -0.10079676981052
  C           1.51067963781836     -1.02977135622604     -1.02218941537853
  N           1.73196779902100      1.34342978214716     -0.35034680948009
  H           1.50940071982889     -0.27632415948984      0.95218681050594
  C           1.18916080472416     -2.43306715066821     -0.55388652052524
  C           2.75443086635917     -0.08820711470099     -5.43905317445815
  C           3.03129602900306     -0.61368827347526     -4.25657268482175
  C           2.55896381456256     -0.03184164705502     -2.96326513365583
  O           1.77648462415483     -1.03971622273869     -2.31148093502226
  C           3.22059359934243     -0.64151193758512     -6.73847614607172
  H           2.16254876982564      0.81623960046305     -5.49878648140514
  H           3.61315993346537     -1.52090232077034     -4.17280460544206
  H           1.95159095027304      0.86536846879180     -3.12728944559873
  H           3.40560803958496      0.22734164184368     -2.31249658539310
  O           2.27031464337265      1.99861964525344      0.51478879469401
  O           1.27383539286828      1.79418009980874     -1.38491883661833
  Br         -0.19444320479975     -2.48168109174684      0.80236196842688
  Br          0.62742071370924     -3.52966121715447     -2.04204557562848
  Br          2.83631372713949     -3.21056122732125      0.19617328843253
  H           3.80361925927769     -1.54712929362085     -6.59585406840065
  H           3.82959317595566      0.09558177157101     -7.26047009657214
  H           2.36439438143143     -0.86633851649371     -7.37297757777664
