20
Coordinates from ORCA-job NEB_product E -42.037977941170
  C           1.99639135359330     -1.35239081929722     -1.94733490923134
  C           0.56500270158395     -1.81867348051096     -1.89992770376098
  C           2.05497678211689     -0.04400509896988     -1.14026251250519
  H           2.63696004089306     -2.08366854698000     -1.44181151974614
  F           0.32291178314588     -2.50988979365560     -0.75699125392926
  C           2.44274961824510     -1.16762197752917     -3.41325768979499
  C           3.67360564231163     -0.31269578196582     -3.53446583087693
  C           3.70348830462055      0.83077934199383     -4.19044795428408
  O          -0.31277526787691     -1.60586487429618     -2.65545160851910
  C           2.73529816273928     -2.54076162018273     -4.02918540941126
  H           1.61505354008072     -0.72522961193525     -3.97833614319919
  H           4.55342748544760     -0.69712964473555     -3.03916921734648
  H           2.83189129220392      1.22937454963693     -4.68434168002109
  H           4.60194891272470      1.41814733402892     -4.25662980467076
  F           3.34649856931339      0.25689953529264     -0.81240293838809
  H           1.50957600676537     -0.14602805222905     -0.19564542115369
  H           1.66306574186330      0.79758901051589     -1.71957191053274
  F           3.72836830558640     -3.17050117856789     -3.35639428892942
  F           1.65954368672819     -3.35880389467010     -3.94820993508697
  H           3.03361733791367     -2.47482539594280     -5.08606226861231
