16
Coordinates from ORCA-job NEB_product E -30.975119479050
  C           1.45310268102197     -1.36216221695646      1.24801102137471
  C           2.62060527408514     -0.95473382926777      2.13516475313506
  Br          2.06408738751150     -2.00602634295936     -0.48496866255364
  H           0.84330061886932     -0.47548135081104      1.04810037125732
  O           3.79136709505056     -0.99798596769664      1.52540875152222
  C           0.59381075543197     -2.40746140792532      1.98618853610088
  C          -0.64601442810021     -2.77642053317213      1.21508262055673
  C          -1.86687558938954     -2.57908621602260      1.67207153816885
  O           2.46114173221690     -0.62397118366328      3.27865937267403
  C           1.38721401394645     -3.59482853519544      2.23432283258395
  H           0.32242616368204     -1.97387235361181      2.95848395864098
  H          -0.47146793837555     -3.22559185773465      0.24711921142884
  H          -2.05438285734799     -2.13960351704286      2.63863896175202
  H          -2.73258025145875     -2.85413498260513      1.09553733657019
  H           4.51810401743140     -0.74880202912861      2.11867316078062
  N           2.02146132542477     -4.52703767620689      2.41340623600724
