16
Coordinates from ORCA-job P E -24.814350552650
  C          -1.37850545928127      0.62985449397345     -2.19366342797854
  C          -0.38945029624930     -1.67070952187204     -0.59884513967011
  C          -1.21701695001404     -1.81296210471171     -1.83844358483923
  C          -1.65145971572422     -0.78659287996041     -2.55364525357954
  C          -0.85081329758392      0.78305762552065     -0.77552014776310
  C           0.20116611795240     -0.27432710058459     -0.48185279069162
  H          -1.43636293045411     -2.82343823236131     -2.14985183521804
  H          -2.21035013226653     -0.95052664459044     -3.46338468885168
  I          -3.20306503611399      1.82372011233305     -2.41703058571191
  H          -1.01443370370367     -1.86378143869217      0.28142258623140
  H          -0.69352287173192      1.07575420675247     -2.91860863306925
  H           0.40418398314491     -2.42236898153774     -0.59926021314539
  H          -1.66323445727988      0.64020920781367     -0.05702523790797
  H           0.64584906258139     -0.11449708777939      0.50265923620309
  H          -0.44301555050440      1.78612554728650     -0.63021095793096
  Br          1.71249123722856     -0.08376720158998     -1.74153932607713
