16
Coordinates from ORCA-job R E -24.716816283210
  C          -1.20209666436055     -0.10386046584127     -2.89131071649767
  C           0.04545780720154     -2.70911260770841     -2.05150781390054
  C          -1.19536999151015     -2.31112121780370     -1.78734778107577
  C          -1.78234653295678     -1.02957649171404     -2.13628353262425
  C          -0.91614789187037      1.92920934794435      0.18621055009181
  C          -0.39414903529903      0.72664992614773      0.30184576840025
  H          -1.86006523698370     -2.97357146577641     -1.24759340769991
  H          -2.77108514190599     -0.84510508649347     -1.73657932796650
  I          -2.11052124459007      1.73977453243304     -3.32333130717828
  H           0.39660323159488     -3.67796313932305     -1.74142440114083
  H          -0.22875983951817     -0.20854436637520     -3.33638191086646
  H           0.75897429444628     -2.09119428391774     -2.56762968154503
  H          -1.90224531203860      2.13907190043566      0.56392972236109
  H          -0.87944215855794     -0.11584251027598      0.76767263377989
  H          -0.39330062510564      2.74098297600473     -0.28974072809444
  Br          1.33215434145429      0.29615295226374     -0.34951806604335
