16
Coordinates from ORCA-job TS E -24.699596663050
  C          -0.58367319132236      0.70929339070498     -1.25901963531273
  C           0.76187966689975     -1.48009803433834     -0.04298960494434
  C          -0.57117896695476     -1.50449289431314     -0.29695988742074
  C          -1.23717946109204     -0.43976684480286     -0.93849662579486
  C           0.04852994546650      1.32334161939379      0.80737365956924
  C           0.84609310578394      0.36553570038556      1.34190300091121
  H          -1.18876111580977     -2.26894270420742      0.15399692361242
  H          -2.31693330477628     -0.46735987934180     -0.97181040488847
  I          -1.63709853822154      2.35404951112884     -2.06203367548854
  H           1.21901685660468     -2.25531967907834      0.55044549426317
  H           0.46050869135685      0.74194872563060     -1.51237561426685
  H           1.43866261555410     -0.92218766143361     -0.66465288117532
  H          -0.98104858353175      1.38062566650472      1.11596287117864
  H           0.52156763103962     -0.32634033176266      2.09895032897819
  H           0.47500037293363      2.21182182545623      0.37446731340011
  Br          2.74461427606944      0.57789159007345      1.30523873737886
