21
Coordinates from ORCA-job NEB_reactant E -33.957006849250
  C           1.28068586295281     -0.48485893246256      0.09598361646669
  C           1.22156584727047      0.00447275517444     -1.14326849740209
  N           1.79075399985118      0.20648764612697      1.18702948794884
  H           0.83647660716620     -1.44519476674178      0.30170456486661
  O           0.52005899918021     -0.63313926858085     -2.14148025436599
  C           1.29481284654883      4.11531772284439     -3.49540922927409
  C           1.74088495924630      3.32131518753195     -2.52311033443490
  C           0.95111935404822      2.20794905949552     -1.92682795485031
  O           1.84453703614364      1.19207313359974     -1.48754367109098
  C           2.06213065571990      5.17564983467095     -4.01333636564916
  H           0.31227239363433      3.99114747086057     -3.93306217417293
  H           2.72939498873281      3.45747625777445     -2.10630321918892
  H           0.22933187582052      1.79871975209357     -2.64556951985095
  H           0.38400343394895      2.58707404005852     -1.05898502401677
  H           2.35129714721926      1.00289872757811      0.91595289189339
  H           2.24930697563306     -0.37433706341181      1.87278513679731
  C           1.31786586664607     -1.05141257490814     -3.23856713555824
  H           0.62607042630765     -1.40592904531474     -3.99985200422103
  H           1.98881582573633     -1.86337793063146     -2.94081470969801
  H           1.91365754310933     -0.22423046359395     -3.63543388526607
  N           2.68025735508393      6.03919845783611     -4.44629171893240
