20
Coordinates from ORCA-job NEB_reactant E -40.535626478040
  C           1.48730321661237     -0.17670790216596      0.00903139241307
  C           1.54597529501786     -0.95392815885772     -1.06811348139702
  I           1.21718314894616      1.87759124924387     -0.20483398778070
  H           1.55343535985984     -0.53058186197884      1.02023451778492
  C           1.76721025336250     -2.44693234422155     -0.95849592873927
  C           2.05850958533723     -1.98621579017239     -4.73341739453655
  C           2.93363894964181     -1.31217861385723     -4.00425179463895
  C           2.54596266258225     -0.18032837594284     -3.09688760580210
  O           1.36873419697678     -0.44832667997461     -2.31105601317135
  C           2.40132795223231     -3.12367092927055     -5.63035794054240
  H           1.01004466243278     -1.72285848834393     -4.68075285765410
  H           3.98639180791942     -1.55410766233993     -4.03824201877269
  H           2.26959672514489      0.70087420499458     -3.68635762985617
  H           3.37479210102802      0.09035290229249     -2.43483261528491
  Cl          3.47955198542766     -2.82246759246592     -1.31601649458470
  Cl          1.41203706613147     -3.06981933823700      0.66400805405618
  Cl          0.73496516432515     -3.30667678027451     -2.11367169336537
  H           1.88024361599071     -4.02456381913008     -5.30721898152588
  H           3.47146030693462     -3.31508614852723     -5.62917234308746
  H           2.07993594409617     -2.90646787077063     -6.64839518351455
