20
Coordinates from ORCA-job NEB_product E -40.550847691190
  C           2.09017951764679     -1.48709254654503     -2.08273303607886
  C           0.87530583068923     -2.31132964352416     -1.78932754690299
  I           1.67156778030172      0.31922558697116     -0.95248631190550
  H           2.99351702241599     -1.90893756747562     -1.64484878751505
  C           1.04404050864966     -3.34488742822620     -0.65736564558965
  C           2.26168535025510     -1.19011565183513     -3.57150048323194
  C           3.38020831886046     -0.21325763913309     -3.78375717628001
  C           3.22935929235559      0.97524590060653     -4.33585060139965
  O          -0.15600218747585     -2.24724754333586     -2.39193280753383
  C           2.56312889231941     -2.50252133115788     -4.30150091898458
  H           1.32555761326632     -0.77262340083921     -3.95529670554319
  H           4.35329787846830     -0.55033470849786     -3.45040585641512
  H           2.26786582018636      1.32633288967339     -4.67272273924664
  H           4.05795897089987      1.64802647145289     -4.47226932247409
  Cl          1.94410338049197     -4.67378226202261     -1.45333615823378
  Cl          1.98037730569232     -2.76595094732993      0.72331932931164
  Cl         -0.52553016061983     -3.93826060494761     -0.11006905847782
  H           3.45965963286085     -2.97061460952133     -3.89948872252507
  H           2.72313728653419     -2.29981693863858     -5.35748546424341
  H           1.73308194620154     -3.19805802567387     -4.20584198673045
