21
Coordinates from ORCA-job P E -24.511070783640
  C          -1.61685507023345      0.52422559852479     -2.22093216919212
  C          -0.12136973629360     -1.54173037417141     -1.23956919657829
  C          -1.49393124658251     -1.84235809010547     -1.74485267540472
  C          -2.21190805129268     -0.84827841963464     -2.24421546773368
  C          -1.06692423765571      0.80077777621136     -0.81544019577836
  C          -0.12980037269710     -0.30865063368741     -0.29831691273695
  H          -1.85583958763186     -2.85795545221943     -1.69801264015584
  H          -3.20790783902630     -0.98669499354942     -2.63469303094289
  H          -2.35432492587693      1.28266414196958     -2.48513506987551
  H           0.31066411695310     -2.39756331554518     -0.71777340686578
  H          -0.80048081395992      0.58013807402267     -2.94813768234564
  H           0.51747545590603     -1.31106650237463     -2.09763590934288
  H          -1.91528578241228      0.89032113648831     -0.13571198913373
  H          -0.50896498704571     -0.64596567745814      0.67347020525656
  H          -0.53451603663831      1.75140466810499     -0.79599083467324
  N           1.19295799301630      0.23224642215992     -0.01642305889077
  C           1.99400313341042      0.65518419790167     -1.14731001932742
  H           1.72208506539419     -0.43513877170856      0.53542183262053
  H           1.41502924706855      1.33565861933905     -1.76863894341765
  H           2.35981665291635     -0.16629212591995     -1.78067464441555
  H           2.85973702268140      1.19528372165188     -0.76363819106609
