21
Coordinates from ORCA-job R E -24.427594773160
  C          -1.27096473311019     -0.15773531724834     -3.23336707344383
  C           0.19476608133909     -2.55345781824344     -2.09927148185753
  C          -1.00454977224592     -2.11154064725147     -1.73525106137102
  C          -1.62056500188157     -0.86575726250171     -2.16570319157905
  C          -0.93788453297333      1.84292203829284      0.33654787465109
  C          -0.39775999004247      0.64389092077354      0.52534614323304
  H          -1.59441307813734     -2.70040865290663     -1.04319318601411
  H          -2.44138604526605     -0.52166850611243     -1.54971923167741
  H          -1.77761701209635      0.75548042641020     -3.49368872877592
  H           0.58603683090221     -3.49050283160078     -1.74069167044735
  H          -0.48081160219162     -0.47024672019514     -3.89538615304917
  H           0.83649237216483     -1.99335026143324     -2.75896919137504
  H          -1.83188172740108      2.12662988492140      0.86020531625431
  H          -0.86461429987312     -0.06020385428359      1.20279024849262
  H          -0.52007501311060      2.57490871787612     -0.32947014755045
  N           0.79335344288239      0.17511931961157      0.00966886971000
  C           1.45123719405407      0.89980907051271     -1.04934710079097
  H           0.81773624428253     -0.82754699701290     -0.11308969525970
  H           1.65766507611262      1.91451632902537     -0.70978818064048
  H           0.84756514894811      0.95594425426574     -1.96543065125194
  H           2.39678041764376      0.41130790710019     -1.27820170725711
