22
Coordinates from ORCA-job P E -24.258659654310
  C          -1.34169919378103      0.36334937861442     -2.36342524076911
  C          -0.07119609105333     -1.67680376117044     -1.05107831123894
  C          -1.45885008766663     -1.91800302094079     -1.55131923682220
  C          -2.07326821050265     -0.93217642058583     -2.18530775593570
  C          -0.73874603365031      0.78787452960707     -1.01133445528344
  C          -0.00533992219264     -0.34962533487144     -0.27193072886848
  H          -1.92152988793092     -2.87713816115669     -1.37627030564411
  H          -3.07821082777686     -1.01848061269207     -2.56863139036529
  C          -2.23620077666007      1.46096485680359     -2.92908962088574
  H           0.26844888220379     -2.49358456464342     -0.41339717737343
  H          -0.51072422078682      0.19414827849867     -3.06194974547368
  H           0.61219572475332     -1.61139299765451     -1.90452560305937
  H          -1.55200373922277      1.16062591999065     -0.38561078263106
  H          -0.50496016117279     -0.51600148375631      0.68831825555139
  H          -0.05299948278348      1.61963683118514     -1.18237521214516
  C           1.44987610354729      0.01839943219338      0.00821167545567
  H          -2.62457320109675      1.17101425730694     -3.90314648701591
  H          -1.67967918668915      2.38898741783599     -3.04368859520828
  H          -3.07734144974808      1.64580201369433     -2.26369715854806
  H           1.98209484252453      0.20187922474723     -0.92322572330307
  H           1.95334417122567     -0.78874240232477      0.53674600155312
  H           1.50726274845969      0.91531661931886      0.62123759801088
