22
Coordinates from ORCA-job R E -24.167018517740
  C          -1.29803876880253     -0.09340172300261     -2.80627149844912
  C           0.18039898079205     -2.69482260728367     -2.28763633939647
  C          -1.04783639932858     -2.38561137096800     -1.88343974788428
  C          -1.78586103685426     -1.17786039636368     -2.20657679793920
  C          -0.69147454362281      2.10108515456839      0.12148692254437
  C          -0.44427519515401      0.82869119667835      0.36811990464208
  H          -1.57842187483437     -3.08712968326746     -1.25094748041072
  H          -2.82675985282271     -1.17996677036143     -1.90637174387688
  C          -2.08985790961431      1.13138017745761     -3.10075697035553
  H           0.65465290731933     -3.61545818537746     -1.99329926564241
  H          -0.25862457811560     -0.05195322120529     -3.10061057900589
  H           0.75473826910798     -2.05220360735581     -2.93316779358510
  H          -1.67114859721056      2.52956575490225      0.24884026415439
  H          -1.23912900780835      0.17630414789814      0.70563564837021
  H           0.08228101305121      2.77221304536806     -0.21593672518981
  C           0.88858189763595      0.17810278401354      0.21820247132360
  H          -3.13047475544465      1.00747070351025     -2.81094518290661
  H          -2.04365724364176      1.36606009442008     -4.16435260013055
  H          -1.67216371222012      1.97941163376145     -2.55738437500351
  H           1.62769152915073      0.88259294354846     -0.15572785379897
  H           0.81623060235511     -0.66467662359795     -0.46844032753727
  H           1.22633827606223     -0.20901344734320      1.17957007007767
