18
Coordinates from ORCA-job NEB_reactant E -32.684465152250
  C           2.11998661439893      0.69912470064259      0.01882002084194
  C           1.71216786218987      0.64082247958235     -1.28860742185421
  N           1.48751309153669      1.28677401717346      1.10393291648314
  H           3.03958304768043      0.20123467495305      0.28330936591267
  N           2.37599040162338     -0.18502903750570     -2.14504345957446
  C           1.66120078922297      4.30363420982575     -0.14802925347536
  C           1.57597109480404      3.52084446670348     -1.20638915119066
  C           0.39502374319879      2.64613247983464     -1.49934141062717
  O           0.78280026883464      1.33888749870010     -1.93559640004883
  H           2.51770941220034      4.93102142516750      0.02652235148391
  H           0.87463333589769      4.34469894414902      0.58672048086339
  H           2.37545854556629      3.46883872074957     -1.93502474931877
  H          -0.17215475566898      3.03622146348710     -2.35081042900018
  H          -0.25876320453499      2.57635877171405     -0.62352503009929
  O           2.15575105398950      1.44823947083477      2.11514231254728
  O           0.29427427179128      1.56638842925687      1.03720768818518
  H           2.00291104327419     -0.25609604064850     -3.07711896385055
  H           2.87354338399492     -0.97699667462011     -1.77926886727801
