18
Coordinates from ORCA-job NEB_product E -32.708575428700
  C           2.06051436867091      1.62464969298059     -0.20166997207519
  C           1.41188639242249      0.53908271478507     -1.11920344527641
  N           2.33483385524658      0.98911069620170      1.10037542983546
  H           3.03024320059685      1.87665175753764     -0.64391954651056
  N           2.23791283708641     -0.49307379947464     -1.35645340903321
  C           1.15999132782691      2.84754993854889     -0.06808332513705
  C           1.29841177848625      3.73084721846434     -1.27092319916447
  C           0.31942028029225      3.98066916623750     -2.11755535516642
  O           0.30762809206524      0.66786834712613     -1.57542132870569
  H           1.44303949973462      3.39913463272932      0.83261821542208
  H           0.12458812794770      2.52134206994023      0.03552874998186
  H           2.27958068879475      4.16635049191478     -1.41528914528775
  H           0.45512677164856      4.62136697462069     -2.97175678065226
  H          -0.65683468727429      3.54532084503083     -1.99109615484171
  O           3.22915052631988      0.16437266154449      1.11068680343605
  O           1.66160592434832      1.29293064008787      2.04866682786977
  H           1.88118110077306     -1.27789612663644     -1.87774670342652
  H           3.06631991501351     -0.62837792163897     -0.79325766126797
