21
Coordinates from ORCA-job NEB E -44.818709981780
  C           0.67006177724156     -0.57278857775368      0.96506637852019
  C          -0.66757103658701     -0.42527200467581      1.67486659971436
  Br          2.09359038920554     -0.04962888311146      2.14728025415810
  H           0.88361297645842     -1.58602367128963      0.62852701644282
  C          -1.79297805990293     -1.14698300363553      0.89785468555755
  C           0.67259708377895      0.39900056614439     -0.25474851288936
  C          -0.53583384057166      0.07673559741259     -1.06250244231832
  C          -1.79298678897947      0.26093916505168     -0.57224534000815
  O          -0.96508516237777      0.57057960953329      2.30207639556250
  O           1.87019064594919      0.19240232906385     -0.94775154366084
  H           0.60960088885387      1.42327322754449      0.14890613985083
  H          -0.35855190132482     -0.52559108435140     -1.94404640199010
  H          -2.64373642629510     -0.02183594775695     -1.17445776285593
  H          -1.97067699888393      1.04906722836987      0.14870246643624
  Cl         -3.35588797644657     -0.96151528609808      1.53254758723111
  Cl         -1.58461344982303     -2.59710337475159      0.00703281625499
  Cl         -0.72111119754574     -2.14360353784557      2.88581546232832
  C           2.30191832618403      1.30548684164362     -1.69765208167056
  H           2.47999950379679      2.17097542477429     -1.05047566718608
  H           1.57135717149584      1.57597994535343     -2.46826068270129
  H           3.23610407577383      1.00590543637821     -2.16653536677639
