21
Coordinates from ORCA-job NEB_reactant E -44.871740446530
  C           1.55494764850127      0.08390216570859     -0.19866919339594
  C           1.60084595998221     -0.34081109067548     -1.46210930391514
  Br          1.46636551765456      1.86748937231428      0.40780714625426
  H           1.52952324253729     -0.61686351304365      0.61649001724491
  C           1.62674589588377     -1.82798966757539     -1.76243278976761
  C           3.90631914439459      1.89298139602288     -4.46965862540647
  C           2.62341227451950      1.85945515132229     -4.12269489078855
  C           2.19128355437713      1.65193120812524     -2.70817806253757
  O           1.66625271110514      0.31692154692060     -2.62865408189060
  O           4.44103585947263      2.05253354171871     -5.69221623240509
  H           4.69433692551109      1.81321888572570     -3.73130636246134
  H           1.82763493522892      1.92156475641765     -4.84631694247821
  H           1.40730224459642      2.36647670346301     -2.43487090967825
  H           3.04158181600383      1.75636624844256     -2.02834472854572
  Cl          3.27722784753873     -2.24055675871287     -2.31374804955256
  Cl          1.22318116707983     -2.85964932411128     -0.39114541163590
  Cl          0.48780169804280     -2.18016631514402     -3.07807699685040
  C           3.55792233579994      2.15907171447400     -6.78703217359591
  H           4.18560244365756      2.26082046715960     -7.67021981890604
  H           2.91512334271652      3.03892544350845     -6.69003694926561
  H           2.93545343539631      1.26447806793913     -6.87958564042225
