17
Coordinates from ORCA-job NEB E -42.102898761230
  C           0.70373675218773      0.75023815364469     -0.00117928731012
  C          -0.54646710840988      0.43011669335250      0.57587003638717
  I           0.37835248586283      1.73100877645263     -2.09678060073886
  H           1.25146997784486      1.53524917552403      0.50795934517228
  C          -1.22063066696254      1.27174378149856      1.61266106688760
  C           1.55390513671296     -0.52057497404411     -0.24417098125449
  C           0.70084515972193     -1.59188726450469     -0.78019148228394
  C          -0.74529968512125     -1.35600916678116     -0.88297447941886
  O          -1.32979984085971     -0.56212606209977      0.09446908873429
  F           2.62127998461840     -0.26710329090137     -1.09113195839150
  H           2.03121021579083     -0.77313328745549      0.71567911055056
  H           1.13675819807634     -2.21587915063885     -1.54364261130485
  H          -1.33587230163028     -2.27284458309784     -0.94049372630973
  H          -0.86735277582625     -0.81341548869354     -1.85051803787486
  F          -2.47311875530088      1.60721477638140      1.28021688135423
  F          -1.30754046661659      0.63952134717070      2.80158285504321
  F          -0.55147631008849      2.40788056419232      1.84264478075784
