17
Coordinates from ORCA-job NEB_product E -42.145854177220
  C           2.96803384755265     -0.87557252990600      0.55179383917069
  C           1.53354226381615     -0.80359557261092      0.96514191090038
  I           3.14228975118467     -0.13561484031380     -1.46080041635455
  H           3.57844150110935     -0.22063656826185      1.17977158153474
  C           1.30437516354151     -1.00244783595487      2.49734805828603
  C           3.52576364618018     -2.31062615948161      0.68761570659345
  C           2.93704835879027     -3.25491228612317     -0.31763590437762
  C           1.86133929687649     -3.98399989904460     -0.09310871409606
  O           0.59652593602978     -0.63105920420291      0.24917101620213
  F           4.88598702591109     -2.23522700236522      0.52149834078200
  H           3.36512068235360     -2.66477040648758      1.71585311442634
  H           3.46372558469246     -3.28602849019820     -1.26054077974552
  H           1.33796037644429     -3.96833652252499      0.84907086112391
  H           1.46069605131826     -4.63190403604554     -0.85210941183169
  F           0.23935183192438     -0.33465019950382      2.92015634815333
  F           1.11049864951194     -2.30170157677328      2.77434421413177
  F           2.35330003276294     -0.60441687020161      3.22953023510065
