17
Coordinates from ORCA-job NEB_reactant E -42.149348786340
  C           2.28026563219278     -0.24994365634920      0.41565457587248
  C           1.65459216223556     -1.15047617550124      1.16739301094132
  I           3.01871400421861     -0.39589697349392     -1.53620153254913
  H           2.44622069229991      0.73307475699574      0.82047988857058
  C           1.23784681800040     -0.73615580713300      2.57662136020434
  C           3.93624850173370     -3.38910641450207      0.90812091624946
  C           3.13516622187370     -3.51036419628521     -0.13423360439225
  C           1.66777086676852     -3.21209199123175     -0.09381624332809
  O           1.27177968703942     -2.43387492951754      1.02281182380815
  F           5.23975306621714     -3.67639170671835      0.82115330483391
  H           3.65788609921981     -3.06350221451439      1.90069143448591
  H           3.52252620833763     -3.85534970532989     -1.08062179849728
  H           1.10375305259391     -4.14350201601778      0.03058181177494
  H           1.34377362186690     -2.74548440030914     -1.02972851729814
  F          -0.04889167348645     -0.99898914176004      2.80896144611228
  F           1.94842769725699     -1.40834575095006      3.49377486217921
  F           1.42126734163147      0.56350032261785      2.82825726103230
