21
Coordinates from ORCA-job NEB_product E -53.873697135660
  C           1.95830665007438     -0.73149310365187     -1.92124520224238
  C           2.17525057839080     -1.95780082780764     -1.00342104469046
  C           1.34350080658457      0.34901586328114     -1.03066376818089
  H           2.91857233239047     -0.35421576249087     -2.28712301874506
  C           3.57209547281255     -2.15611111226129     -0.66524195966447
  C           1.06096787292357     -1.14810287569245     -3.10797700085702
  C           0.43762918820304      0.00804401668239     -3.84147041855197
  C          -0.86664687153525      0.18345619833662     -3.93208162264990
  O           1.27596758900502     -2.62214894683337     -0.57189320959372
  C           1.88857797187680     -1.97593618131332     -4.09795637591978
  H           0.26686042355812     -1.79620469005308     -2.71813185734374
  H           1.12755385521449      0.68155269122765     -4.32647651291834
  H          -1.56884760032409     -0.48390466513623     -3.46114590341764
  H          -1.28290575338403      1.01214154237341     -4.47691362475402
  Cl          1.41159792496070      1.94841997220546     -1.79373536491269
  Cl         -0.32850803416040     -0.01620376126410     -0.59685908112527
  Cl          2.31400564446618      0.43533494306864      0.48289520105033
  N           4.67780925909702     -2.29849325428891     -0.40990727881943
  Cl          0.83735101508241     -2.57899291386684     -5.39213259971530
  Cl          3.19385046221054     -1.01171945563057     -4.82785605502398
  Cl          2.64621121255312     -3.37943767688475     -3.28646330192428
