17
Coordinates from ORCA-job NEB E -37.350297958890
  C           0.93278592843803      0.57269400366415      0.31586799075950
  C          -0.11787610537580      0.72357313439508      1.21175394632363
  C           0.99069289580362      1.41504802787875     -0.93011927371646
  H           1.92866729286585      0.47296674530923      0.73784553897592
  I           0.32512271541917      0.16406354158252      3.25542977728285
  C           0.46983596135506     -1.29611766365606     -0.29437561377171
  C          -0.86034973629419     -1.17277251443360     -0.63113940352498
  C          -1.78939359926987     -0.79685996637731      0.39778119030067
  O          -1.34656398384486      0.65423693694199      0.87062132935566
  H           1.19120427459207     -1.48466655633267     -1.07380500880967
  H           0.73028279984453     -1.73141522997172      0.66130949968741
  H          -1.13561624362253     -0.98340461806513     -1.65685056840436
  H          -1.72183701808658     -1.36180486752229      1.32782186669433
  H          -2.81601483516045     -0.64109597554621      0.08651150556244
  Cl         -0.55124774676151      1.68261050074784     -1.74092242032674
  Cl          1.62019381258944      3.03119732117787     -0.43157645863170
  Cl          2.15011358750804      0.75174718020757     -2.10615389775677
