17
Coordinates from ORCA-job NEB_reactant E -37.374978260600
  C           1.60164084248737      0.16289282345834      0.01700267017397
  C           1.02497536865552     -0.99954079942516      0.34402591018520
  C           2.01827342035560      0.45637304754419     -1.37624722978027
  H           1.79520416509709      0.91704399849985      0.75860003221539
  I           0.45776300215280     -1.28176038502237      2.37415374527148
  C          -0.04752445988252     -5.16655243259527     -1.60688205810436
  C          -0.13217894749383     -3.85198580639278     -1.55343693396638
  C          -0.02979224948865     -3.05939544213998     -0.28716999476631
  O           0.84775054083293     -1.96796138018606     -0.52859926182929
  H          -0.14477651608494     -5.70031040355701     -2.53559326737934
  H           0.10994178291395     -5.76405618522787     -0.72393531378043
  H          -0.28337202408799     -3.25523476064778     -2.44117714350949
  H           0.35649393778798     -3.67996643793897      0.53126959106069
  H          -1.02255749405450     -2.67739023598853     -0.00698732666112
  Cl          0.64454375123280      0.30305859948049     -2.51266221987375
  Cl          2.65351741825741      2.10390860281646     -1.49931862535136
  Cl          3.29179746131898     -0.67932280267757     -1.92944257390463
