20
Coordinates from ORCA-job NEB E -44.049139510330
  C           0.77374747641359     -0.96372868043946     -1.62103601319686
  C          -0.51455094083981     -0.79282331103601     -1.46420084101025
  F           1.76846036723960     -1.51772898074125     -0.96605115407778
  H          -2.68351797851291     -2.99594018526258      0.96865394585429
  C          -1.42707268840746     -0.47118618935687     -2.62273916874251
  C           0.57195966489397      1.19435973913547      1.23671478990391
  C           0.59096581812678     -0.12408612550259      1.34756792379548
  C          -0.57990315526144     -0.95229429773652      0.89781786453057
  O          -1.17639682525306     -0.48842418125846     -0.30465530608621
  C           1.66733630256246      2.13843193770310      1.54038525612781
  H          -0.31479612704900      1.67612468493777      0.83656190840234
  H           1.43928603852068     -0.66387312613973      1.73963743194125
  H          -1.38844312689740     -0.89173108392559      1.63494199056562
  H          -0.29241142639442     -1.99225954615585      0.77541553868682
  F          -0.78139869727831     -0.17102311567334     -3.76467249587394
  H          -2.01693650955035      0.40902374264085     -2.33604484411231
  H          -2.10157800169266     -1.31268859496487     -2.81995137769870
  Br          1.00731503486794      3.61437486419409      2.67296611723494
  Br          3.20348454647657      1.35535492048063      2.42085693992217
  Br          2.25445022803524      2.95011752910123     -0.17216850616663
