20
Coordinates from ORCA-job NEB_product E -44.271523164290
  C           2.35458267080189      3.65405043675281      0.29009786301260
  C           1.05091894203472      2.86166953664424      0.12360656256606
  F           3.34127210796185      3.11837753935961     -0.49932451684087
  H           2.18543742162665      4.68055233351867     -0.06758976033194
  C           1.12340384742670      1.80577803195954     -0.95478944874645
  C           2.75057036689982      3.64247797149548      1.77678479011185
  C           3.19258720829611      2.25938269924795      2.17634286891448
  C           2.58016036786303      1.54454153904912      3.10023305378167
  O           0.09467523229527      3.08658245647591      0.80668072222091
  C           3.82257772937489      4.66791004167211      2.12833890355733
  H           1.84298770565203      3.91335123171091      2.33399792573567
  H           4.05367345301523      1.87777800691001      1.64411733790395
  H           1.72005038751494      1.91449794575440      3.63355900457324
  H           2.91878297614956      0.55701217699620      3.35921881879315
  F          -0.05779451258605      1.14457898318644     -1.08000420287178
  H           1.89908727203187      1.07153293341444     -0.70317955935102
  H           1.36193278634649      2.26629828476348     -1.92129895587707
  Br          4.14050698698752      4.61544575973892      4.05915115124102
  Br          5.51930086031734      4.35063912239178      1.23597163711858
  Br          3.23218618999013      6.48644296895796      1.68898580448862
