24
Coordinates from ORCA-job TS E -31.635408396260
  C          -0.08000755954911     -0.28428399468071     -0.66236916120529
  C           1.47818259167582     -1.98810039295812      1.04644568253272
  C           0.14934592920183     -2.20236480226650      0.80620558656948
  C          -0.62301454362571     -1.36773952006380     -0.01184185028124
  C           0.52607363124697      0.76483869597502      1.35763633909224
  C           1.40470607457009     -0.03598844017170      2.01968978253588
  H          -0.38526046451973     -2.91014137244088      1.42616038683159
  H          -1.69337697022875     -1.50357272414374      0.00996986119453
  N          -0.77320316291118      0.60786040023461     -1.42668031150235
  H           1.99568227945404     -2.61124901647867      1.75881847493189
  H           0.98164883865794     -0.27136747008211     -0.85114747841826
  H           2.11155935931838     -1.55080599072536      0.29540626704326
  H          -0.50464475617394      0.77843707876714      1.65841028637170
  H           1.15148879525741     -0.54041695734727      2.93688426083992
  H           0.87374878876946      1.55785072328809      0.72314337922616
  Cl          3.10908072536151      0.32520009228579      1.91179060518269
  C          -0.08923625870685      1.77171493744818     -1.93275063690409
  C          -2.19449232739661      0.77421144928769     -1.23837022067611
  H           0.96869089914227      1.55369898849714     -2.06291223267256
  H          -0.18978830279514      2.63200199131803     -1.25882182944385
  H          -0.50702878968308      2.04635775489504     -2.90328599101450
  H          -2.43546239605004      1.17576545499267     -0.24704652362062
  H          -2.70085616799421     -0.18195502282189     -1.36163361240443
  H          -2.57383621302138      1.46004813719135     -1.99370106420876
