17
Coordinates from ORCA-job NEB E -41.826548727330
  C           0.81917643131444      0.79122161971606      0.66093861842108
  C          -0.51524039604935      0.39000591960116      0.86077395533650
  Br          1.01806393706256      2.64942442505148      0.20590343363370
  H           1.55979347619618      0.50779250519798      1.39929643184676
  C          -0.80088026178275     -0.73859492724425      1.83230042354753
  C           1.32890392541759     -0.10062520450650     -0.95001689323780
  C           0.14789832370767     -0.52094966951227     -1.58323774709674
  C          -0.91573153979119      0.42100196062003     -1.62096629621832
  O          -1.38421629965937      0.59233025177516     -0.06802565566804
  F           2.18384902713728     -1.06991572075838     -0.57357803744427
  H           1.89486104252428      0.72952942842552     -1.36799424682501
  H          -0.10591943850323     -1.56776293191717     -1.48403288590186
  H          -1.84357150554947      0.09231628538124     -2.07241303037862
  H          -0.65488258066339      1.43963002021829     -1.89731164068742
  Cl         -0.15677599059658     -2.29682989952924      1.20363572867208
  Cl         -0.03013543902218     -0.41384489759554      3.39484559765587
  Cl         -2.54519271174246     -0.90472916492358      2.05988224434457
