17
Coordinates from ORCA-job NEB_product E -41.870304861560
  C           2.74878455147302     -1.72824877711497     -1.01276325426286
  C           1.40967295985908     -2.29584439360165     -0.60639671702842
  Br          2.51852560786193      0.19743206771723     -0.96103928981396
  H           3.52922071842656     -1.97371291850024     -0.29007376336408
  C           1.38235219453581     -2.87276438410331      0.81849768554015
  C           3.19573989131292     -2.15896087532693     -2.42412593235487
  C           2.15369534088050     -1.97009086695084     -3.48393270581871
  C           2.06096776952458     -0.87765098656985     -4.21821804959314
  O           0.44151771257945     -2.31645074356166     -1.30278963950706
  F           3.53717201289290     -3.49169404591279     -2.32744320510899
  H           4.12040651848806     -1.61994987870337     -2.67341125176201
  H           1.47177020535667     -2.79857325333413     -3.60154934807423
  H           1.28783272364630     -0.76783942036685     -4.95725917439561
  H           2.73878724744327     -0.04740249175431     -4.10364648798689
  Cl          2.42688976300873     -4.32254645162138      0.76810026190278
  Cl          2.03090948372011     -1.70592842182503      1.98826253969730
  Cl         -0.25784470100989     -3.32867415846991      1.27458833193060
