17
Coordinates from ORCA-job NEB_reactant E -41.862722972980
  C           1.84008195669470     -0.24234365313689     -0.06348709175555
  C           1.68448030998778     -1.53353989934101     -0.35459282132862
  Br          2.18238963135975      1.19445815821015     -1.23966089658682
  H           1.75604882728306      0.09632719127382      0.95385160046516
  C           1.40577182066527     -2.53521697305712      0.75152460481898
  C           3.47605926072908     -3.03579793035717     -4.33018167535701
  C           2.35026546979984     -2.74941152881142     -3.70557440983795
  C           2.22924994220201     -1.63943403671261     -2.71248309974336
  O           1.74789022127425     -2.22535099114914     -1.50537285670312
  F           3.55141990859010     -4.02507340762911     -5.22568468195524
  H           4.41817788202865     -2.51735428556916     -4.21867395447025
  H           1.46166985958439     -3.33597235057388     -3.88144294737955
  H           1.51156540236568     -0.89457462819868     -3.07786744263019
  H           3.20106764183927     -1.16383690168433     -2.54767121841551
  Cl          2.84564930430491     -3.58011084224061      0.91738700535569
  Cl          1.05732124922871     -1.81626365130077      2.32224314323060
  Cl          0.02089131206254     -3.54650426972207      0.28318674229275
