16
Coordinates from ORCA-job NEB_reactant E -29.837665505830
  C           1.91122500158302     -0.16901267448638      0.13968386274554
  C           1.59614372456182     -1.40485141959344      0.53301306329228
  N           1.76398632229178      0.28603047068946     -1.15794619022690
  H           2.25744460664941      0.55336150861754      0.86094245277540
  Cl          1.67494954392107     -1.82555355827904      2.23060777219379
  C          -0.59189034932010     -5.27144041073915     -0.77275168852658
  C          -0.28271999984484     -4.03181756941933     -1.10594354947351
  C          -0.06602817009933     -2.94987776882137     -0.09977052704660
  O           1.23616652888609     -2.40224078976480     -0.31425768311378
  Br         -0.88489194703425     -6.62382166350711     -2.05490324050653
  H          -0.72396452322872     -5.61215871132643      0.24193170610878
  H          -0.14908203869859     -3.74593483177415     -2.13906307178934
  H          -0.14232392359309     -3.34005280665347      0.92220598869443
  H          -0.81814792524220     -2.15793442037629     -0.23525863396810
  H           2.44941092807457      0.96441366961252     -1.45255006302322
  H           1.62212222109334     -0.45360902417856     -1.83124019813566
