21
Coordinates from ORCA-job NEB E -50.723868950260
  C           0.60081490614048      0.65056152981452      0.72110004130092
  C          -0.75841515035907      0.66189123299217      1.11625128950447
  C           1.08807661341683      1.79817568587654      0.02283514872630
  H           1.31512395590888      0.27096918381250      1.44990564353888
  C          -1.17225687629272     -0.20571395548702      2.29487881933054
  C           0.51519542549817     -0.63352160338548     -0.67649341009947
  C          -0.45776770185687     -0.10085578237043     -1.53274238070222
  C          -1.78030839537070      0.03574357101459     -1.02433544251325
  O          -1.67816517274843      1.00722129533164      0.27328538851270
  C           1.91967687791991     -0.79065347593856     -1.21797959041961
  H           0.25495079249582     -1.49967259073839     -0.07238626008903
  H          -0.13561008781995      0.55636848647359     -2.32789807881516
  H          -2.21528315707069     -0.85027733677719     -0.56849170960945
  H          -2.48160952396348      0.57074406092132     -1.65255214330392
  N           1.47531933744426      2.73208865568362     -0.50861240930506
  F          -1.16405691391222     -1.52581981944822      1.92972930562935
  F          -0.29650104281154     -0.09963653999943      3.31399309757875
  H          -2.18144584645036      0.03402748210143      2.65717120267710
  F           2.84422613968250     -0.81489413032864     -0.24756120094637
  F           2.03089764963343     -1.95964295136134     -1.87205260162074
  F           2.27713817051578      0.16289700181277     -2.07804470937475
