21
Coordinates from ORCA-job NEB_reactant E -50.760148881130
  C           2.36663501713865     -0.57932354788276     -0.16417151549038
  C           1.55621626879631     -1.65141869397641     -0.12617419375022
  C           2.74473112778652      0.15207536967063     -1.30141387493368
  H           2.79605594961554     -0.21317133520229      0.75717571225630
  C           1.28813548876856     -2.34443662827611      1.20006056367036
  C           3.30128418149917     -2.99289171417597     -2.44393248863196
  C           2.43194690821184     -2.17232090329677     -3.01078110337082
  C           1.07525067760586     -1.87272932226162     -2.45179731757348
  O           0.90568463013395     -2.28249487664325     -1.11092840978476
  C           4.65468568021808     -3.26438744026424     -3.01911818875897
  H           3.11090182659031     -3.52583367023993     -1.52343933132932
  H           2.66545486250249     -1.66704601117463     -3.93698745070058
  H           0.32144880332161     -2.43855928822809     -3.01080711828193
  H           0.85473170951691     -0.80437924131021     -2.56030267211259
  N           3.08524280023695      0.78678892248416     -2.19516522194444
  F          -0.03560949471902     -2.49955043647989      1.40549427034441
  F           1.82773044531543     -3.58674761163942      1.18169168139467
  H           1.70983082702359     -1.80370907066594      2.06067750917739
  F           5.63232806229592     -2.82665318666289     -2.20446765755675
  F           4.86985195850252     -4.57991275104084     -3.18737536858814
  F           4.85716226963879     -2.68699856273352     -4.20823782403511
