20
Coordinates from ORCA-job NEB E -40.663158195600
  C           0.62861260410582     -0.86538983304956      0.70680879672323
  C          -0.71565760109439     -1.08943612448329      0.31457525285421
  O           0.90247114004998     -0.41603765428041      1.93978164951606
  H           1.41478665271113     -1.50756697948150      0.32383905924084
  C          -1.01814419226038     -1.91792873121974     -0.91300015472407
  C           0.80500315722960      0.77362401672472     -0.42374299741307
  C          -0.19065730143197      1.61125561194084      0.09370705080008
  C          -1.53406348933807      1.27565414906334     -0.08316581167316
  O          -1.60660166823038     -0.28693542517225      0.76299825677278
  N           2.18035550720304      1.12111657711729     -0.12349146537265
  H           0.71979675575648      0.31603367082586     -1.40247860794881
  H           0.09906294544226      2.25935753584637      0.91040457395830
  H          -1.85891359519216      0.90156725620383     -1.04534683215780
  H          -2.28187445961098      1.85013875807506      0.44209180734109
  H           0.11122365447790      0.00799360258439      2.31183137802172
  F           0.10026280603971     -2.54300086275946     -1.38780783111749
  H          -1.41226673263373     -1.29031255817416     -1.72501109763684
  H          -1.75612076101713     -2.69194316185519     -0.67425827969356
  O           3.02023967411132      0.70201562091717     -0.88659743971296
  O           2.39248490368198      1.78979453117670      0.85886269222209
