20
Coordinates from ORCA-job NEB_product E -40.690290766760
  C           3.09823246770118      0.78487495817636     -0.94676909343709
  C           1.64662984764292      0.39572338524561     -1.24318085258121
  O           3.33300600384692      0.77280580536399      0.41980324359579
  H           3.80315292828119      0.09267213710182     -1.42401353752993
  C           1.41318333501172     -0.23804423401801     -2.59842047901621
  C           3.32269948574486      2.20927190403379     -1.56255293132643
  C           2.56513958773509      3.25931897310489     -0.81802275643815
  C           1.45567258972946      3.80949798298998     -1.27409064548041
  O           0.79233090675637      0.58866185646100     -0.42365121909993
  N           4.80092318088133      2.44472786865192     -1.51776691065766
  H           3.05201784134452      2.18214568331520     -2.62227187850784
  H           2.98172635021775      3.53237826690630      0.14054504113700
  H           1.03181577466151      3.54461152496235     -2.22936499602785
  H           0.91984064519497      4.54650320734646     -0.70368399232835
  H           2.50049234831075      0.98233718843667      0.87374419947620
  F           0.10121154316353     -0.17075399490471     -2.96058923340162
  H           1.68507461123425     -1.30034070282479     -2.53764140281840
  H           2.00200326560596      0.24365079543715     -3.38588121118871
  O           5.45351476931578      1.72628331113460     -2.23531027647611
  O           5.22593251761993      3.30267408307942     -0.79668106789309
