19
Coordinates from ORCA-job TS E -33.110152813750
  C          -0.31155799756909      0.38145049638915     -1.00502841123528
  C           1.19302961697487     -1.68775719310380      0.29998139912987
  C          -0.10868897317980     -1.84494906066199     -0.05296901322789
  C          -0.84942502478781     -0.82731683074310     -0.69249135401706
  C           0.33175515994634      1.01793895172344      1.23168004592181
  C           0.97718153965581     -0.02286823855273      1.79895980894699
  H          -0.66641442346713     -2.68476544066483      0.33635406068769
  H          -1.91957947391481     -0.95836459684255     -0.76727071996073
  C          -1.13199088218663      1.47809660608988     -1.57386161373004
  H           1.68810023854922     -2.44647176638573      0.88385800914791
  H           0.74761969238045      0.50223191134135     -1.15476714451629
  H           1.84253051406188     -1.02235615516786     -0.23860997301846
  H          -0.72019808121036      1.17372050301144      1.39130422160611
  H           0.45515288233717     -0.69397671336686      2.45935647413405
  H           0.87366198439922      1.83029706649829      0.78048703170213
  H           2.05188204933371     -0.03139042156200      1.86652303946646
  Cl         -2.68664856808860      1.67026116053444     -0.73715700856511
  Cl         -0.27383886896243      3.03172837952570     -1.51540524698819
  Cl         -1.49257138427201      1.13449134193776     -3.31094360548397
