23
Coordinates from ORCA-job NEB E -51.629617876100
  C           0.52767784095065      0.45488402601665      0.52205061157613
  C          -0.85709884798030      0.72604552753286      0.92827220373432
  C           1.14963109559611      1.64358096357923     -0.22464287482150
  H           1.18485990812430      0.23135411181964      1.36609446570179
  C          -1.33832152118559      0.34793575863021      2.24537875128895
  C           0.46840384027599     -0.87725306248063     -0.43598358959310
  C          -0.51657943847507     -0.61996360609806     -1.47191951274864
  C          -1.83568321566317     -0.30037951132624     -1.07261037612624
  O          -1.74046788884864      0.90273784710270      0.00013191239721
  C           1.84378258241115     -1.28299084133415     -0.96359631164954
  H           0.14321732432361     -1.64865449783784      0.27151421983939
  H          -0.17060732968072     -0.35534354716984     -2.45879800236393
  H          -2.33566960134072     -1.03033129788397     -0.43485787182640
  H          -2.49146964029395      0.08906983718632     -1.84271096070929
  F           2.48599356323821      1.48526741556453     -0.33212359774991
  F           0.66271716253847      1.80049201631874     -1.46663157442464
  H           0.97808569116144      2.58357610157051      0.32560326703926
  Br         -0.17427252392942      0.78898930769625      3.70105682868868
  Br         -3.11870660400983      0.96187861265861      2.57199437738466
  Br         -1.50554057535912     -1.86783588083880      2.33255587400662
  F           2.19722417865359     -0.56437664788933     -2.06974396118520
  H           1.81342780236792     -2.33308316200681     -1.27465886493097
  H           2.62939619712510     -1.13559947081058     -0.21637501352764
