23
Coordinates from ORCA-job NEB_product E -51.661669526550
  C           2.11239738987530     -2.21988121269178     -0.67999261382900
  C           0.81446749664161     -2.73527297313555     -0.10149590055358
  C           1.90009261169871     -0.73323581747161     -1.03752592998026
  H           2.93186550758573     -2.26522640570281      0.04457762644134
  C           0.72700295748229     -2.83261769758770      1.42072768836877
  C           2.48424099496315     -3.02768337032463     -1.94774801667341
  C           3.68335717478685     -2.42979199298209     -2.62988341711323
  C           3.66410338609730     -1.97079527575809     -3.86555391310996
  O          -0.11942663683846     -3.08897560767291     -0.75966282780090
  C           2.78140469475196     -4.48466966465475     -1.57910263258140
  H           1.62494453683159     -3.02199432889251     -2.62543768087027
  H           4.58850728466844     -2.41671769997401     -2.03888363070801
  H           2.76466236061014     -1.97196308406921     -4.45910755542558
  H           4.54529788994228     -1.56248679609935     -4.32775143106717
  F           3.08413128307132     -0.12647196919322     -1.25112062377629
  F           1.18210717215133     -0.60329335699408     -2.16933933183914
  H           1.38219442471172     -0.16517825971866     -0.24809923000509
  Br          1.49175168307619     -1.31407356356986      2.35787203041140
  Br         -1.12038703258197     -3.05493163196026      1.94842105705162
  Br          1.73725218300963     -4.44238830401859      1.89018237705317
  F           3.77169032229760     -4.54398882733520     -0.63130066091638
  H           3.14174700968772     -5.03162436681999     -2.45475073435033
  H           1.90669530547955     -4.99233779337315     -1.15972464872629
