23
Coordinates from ORCA-job NEB_reactant E -51.653656589290
  C           1.52888532701639     -0.17351400539863     -0.00444230654156
  C           1.63122317785964     -1.46906810713362      0.32088289388365
  C           1.83798206701210      0.50890234664610     -1.29942319077497
  H           1.16649817302552      0.50609044063714      0.74917227144964
  C           1.28871684519817     -1.93844472037093      1.71706549638925
  C           2.57808890911537     -4.57622508828720     -3.04512933135378
  C           3.00534587001963     -3.91947165175089     -1.98067191023518
  C           2.60226074165341     -2.51689015512179     -1.65532194267585
  O           2.05228727155992     -2.54731602779781     -0.33718358150638
  C           2.98367067221542     -5.96997261276777     -3.39662796181128
  H           1.89996869583045     -4.12339790276982     -3.75530832991576
  H           3.67552336217208     -4.38868688305932     -1.27502291207994
  H           1.85733366140266     -2.15534045416106     -2.36880831719563
  H           3.48282815865546     -1.86464446319101     -1.66851774701054
  F           3.14654726360198      0.40223239172285     -1.65886574230659
  F           1.12839261708120     -0.00034091049343     -2.34355745579847
  H           1.60502906266936      1.58143265568679     -1.24258534104052
  Br          0.13327578492677     -0.77568994347313      2.73107181684372
  Br          0.43441139230365     -3.67900301830853      1.62632938869704
  Br          2.98006456758086     -2.13182485918659      2.69611268721736
  F           3.88034226374195     -6.48926955080127     -2.50144270044010
  H           3.46449567052037     -5.99889001859336     -4.38268854028587
  H           2.11262844483763     -6.63756746202671     -3.40053724350827
