17
Coordinates from ORCA-job NEB_product E -38.115824915700
  C           2.21631573435804     -1.12582464054147      2.57521550329253
  C           1.53940801886982     -0.32360740932083      1.48267411949470
  Cl          2.57405357420983     -2.68214232862872      1.76567536229094
  H           3.17224989640797     -0.67158444618384      2.84729756314567
  H           0.56321502562714     -0.74345565413309      1.18287865355950
  C           1.30035719008119     -1.27389469107033      3.79994541984319
  C           0.12210044601606     -2.16904535415385      3.52440810142454
  C          -1.12528876760375     -1.74124724764181      3.50330234661562
  O           2.01527765984063      0.63857401389867      0.96103622045300
  C           2.05000856172195     -1.75761197555834      5.04700594645928
  H           0.93774557592947     -0.26535404355121      4.03720383851627
  H           0.36150853779430     -3.20530988576723      3.33954516065252
  H          -1.38105923804052     -0.71090046976844      3.68980585688815
  H          -1.94426389240489     -2.40874283998845      3.30090454435187
  Cl          0.91331002164105     -1.77453097597423      6.42119136236615
  Cl          2.72127095123333     -3.38362435344686      4.86250889976551
  Cl          3.37899070431837     -0.64169769816993      5.45570110088055
