21
Coordinates from ORCA-job NEB_product E -54.569423258960
  C           2.42444468894225      2.02754996580396      0.32210044912155
  C           1.77937123894098      1.74734052260346     -1.07132715981260
  C           2.25177506547040      0.79744068026624      1.21295675508272
  H           3.50489256637034      2.15668425592982      0.17190315157034
  O           2.26766202811671      0.71364092316882     -1.73757345207776
  C           1.81815276288491      3.31787558310109      0.92153704612769
  C           0.69704468591017      3.07570245982179      1.90254756622774
  C          -0.57270018199521      3.12543117787161      1.55021251286796
  O           0.92123367688414      2.44246699450787     -1.51725904945671
  C           2.90473488045996      4.17231658413860      1.56828267597977
  H           1.42538849654673      3.90162850793446      0.07839803252020
  H           0.99612828021576      2.85560281239393      2.91772882037702
  H          -0.87050350470777      3.33806226934932      0.53712076038488
  H          -1.35754991876548      2.94068848009515      2.26144038332817
  F           2.62757759083645      0.98809929671311      2.47364052610105
  F           1.00138021020086      0.33170978954972      1.23455054485612
  F           3.01849748967111     -0.21768588440507      0.74670606133743
  H           2.94492519674042      0.18637697338913     -1.28913763948929
  F           3.48620791135432      3.59078250114222      2.62372518511009
  F           3.89783218091424      4.44688540462357      0.70109026034794
  F           2.42260465500871      5.34520070200121      1.98455656949569
