21
Coordinates from ORCA-job NEB_reactant E -54.549287263910
  C           2.03280071634810      0.41484114450489      0.29687573596111
  C           1.72651401046487      1.18074492200976     -0.76688478304696
  C           1.36491590146491      0.35015673941833      1.61601495572447
  H           2.83032123133774     -0.30396717998341      0.20108671909504
  O           2.36182778585719      1.02097565451803     -1.93954306753315
  C           1.75701731048404      4.31540716701855      1.82217519888332
  C           1.61914998466310      3.83374533231235      0.59845960186610
  C           0.45242060352486      3.01793376884177      0.13733945453604
  O           0.80744877237413      2.13885427820774     -0.91905981912551
  C           2.92045224427965      5.16623046447512      2.22357221223995
  H           1.04474244488956      4.14297033214348      2.61358861432304
  H           2.36773795893863      4.02725226818079     -0.15947016473535
  H          -0.28570604798448      3.68136894588897     -0.32776052013915
  H          -0.03471344366495      2.50181916404793      0.96742051155098
  F           1.62296661923613      1.39726995747574      2.43775006089994
  F           0.01667950536700      0.28870324146580      1.54627601085249
  F           1.75282960876239     -0.74025399764638      2.28703430588114
  H           2.94016772864692      0.24837939708770     -1.93583007572917
  F           3.89941948333062      5.19329307642522      1.30809684580897
  F           2.55513330389834      6.44741157044748      2.42364136394329
  F           3.47687427778123      4.75286375316012      3.37051683874343
