23
Coordinates from ORCA-job NEB E -45.152909536610
  C           0.20005574462941     -1.20209832834496     -0.72763468235439
  C           0.27714385021100     -0.77775173133609     -2.05264354072325
  C           1.43659362720545     -1.73344026431959     -0.06601318345926
  H          -0.67604623644345     -1.77663965577541     -0.46723491874782
  F           1.52528092195007     -0.47282576009431     -2.51485787985527
  C          -0.59350194664529      0.55736929744607      0.21381629312952
  C          -0.77557504071986      1.40145035442587     -0.87629563873164
  C          -1.60839824762360      1.02528570895332     -1.92117637023411
  O          -0.67388010842260     -0.35976457491010     -2.72242747277471
  C           0.30061379600333      0.97515316716699      1.34912914186950
  H          -1.45099956208173     -0.03167185093540      0.51373805232696
  H          -0.02145825389854      2.15476148946084     -1.06636869432452
  H          -1.69863008079744      1.65951774646355     -2.78880338492338
  H          -2.47196491293720      0.41134470459992     -1.71071196893325
  F           2.46503679485963     -0.88010317885123     -0.03362733473314
  F           1.19788864765276     -2.08842343957483      1.20843647495684
  F           1.88853168047713     -2.84836182833670     -0.67234851969230
  C          -0.15339736787263      0.40768385929529      2.68981571178294
  H           0.28708488994142      2.06781677637007      1.39741360848164
  H           1.33783845464502      0.69830762969709      1.16355336261088
  H          -1.16994774000358      0.72494809546353      2.91234962574557
  H           0.49709626158917      0.76527539053879      3.48341425774496
  H          -0.11936517171847     -0.67783360740270      2.68847706083825
