23
Coordinates from ORCA-job NEB_product E -45.205571054960
  C           1.69036043214100      1.55369052012396      1.10871702442272
  C           3.07702185901721      2.13814724350666      1.03747641551870
  C           1.63847762536887      0.19822769466938      1.81101031663721
  H           1.38870984302064      1.34412397461792      0.07337621696185
  F           3.86755039500327      1.72999780998243      2.05573919037022
  C           0.65749326983480      2.57478674755046      1.69213214533509
  C           0.03398076948384      3.31213535219635      0.53832095212210
  C          -1.25116637346988      3.27134188138573      0.24601331374689
  O           3.50033783475919      2.88342946650710      0.22942492094593
  C           1.23751719610987      3.60714597542702      2.67431973057258
  H          -0.11814956151221      1.99883164060615      2.20754588722413
  H           0.72279098935000      3.90571994569669     -0.04725516043620
  H          -1.66305060759534      3.82459468535252     -0.57980376752055
  H          -1.94638303634922      2.68371366044430      0.82288540316580
  F           2.50562194605712     -0.66540618301714      1.26225395344417
  F           1.88461175665656      0.21800978358471      3.11867314634315
  F           0.41921701532880     -0.34737932049353      1.66578416077317
  C           1.61381123133610      3.05258922985174      4.04309516434924
  H           0.46296921624004      4.36645341506013      2.81031313775780
  H           2.09836916866515      4.10524741966016      2.22319794854748
  H           0.78288635075133      2.49923876736948      4.47420929725042
  H           1.85860744680601      3.87462136853442      4.71114891052730
  H           2.47561523299687      2.39503892138335      3.99572169194079
