23
Coordinates from ORCA-job NEB E -33.037368751590
  C           0.51047949669289      0.64802201853324      0.42449674320809
  C          -0.70159819330569     -0.05662438628428      0.57611398973836
  C           0.52986001616585      2.02863940178890      0.14598168585469
  H           1.35627053421282      0.31727924820472      1.02095938092732
  C          -0.67611691008376     -1.32144444199086      1.41106632287996
  C           1.02465380339406      0.05003571833178     -1.50172633184228
  C          -0.14704240981944      0.47593175884357     -2.15187925885927
  C          -1.35231384861135     -0.15410936125906     -1.91232983668835
  O          -1.71597941201910      0.22501549430527     -0.12343424894319
  N           2.22890885765074      0.63811833400269     -1.79900016052985
  H           1.10981264670498     -0.99918529675187     -1.23871499667092
  H          -0.15158965736836      1.48147232009768     -2.54799194928829
  H          -1.37118370239462     -1.22079027470562     -1.74096055095932
  H          -2.25124846222546      0.25223374623994     -2.34539579003677
  N           0.60637129083909      3.15472919727323     -0.06222869807394
  C          -0.71278746776255     -0.98801825162931      2.90246468588226
  H           0.22750045192083     -1.89641685948780      1.18819068420891
  H          -1.54876135860851     -1.92304365245892      1.15113813630241
  H           0.14168136538138     -0.37543545996713      3.18317587158097
  H          -0.69327922918283     -1.90063094192821      3.49381709238131
  H          -1.62002013604479     -0.43868074702175      3.14185635650469
  H           2.18736243826971      1.63099962557013     -1.98306214912657
  H           3.01901988619412      0.37190281029366     -1.23253697845020
