23
Coordinates from ORCA-job NEB_reactant E -33.074831218710
  C           1.65166077593296     -0.26330528308719     -0.26138445064783
  C           1.46702576466818     -1.56781220696446     -0.54923026781148
  C           1.53385108933252      0.84829486184195     -1.10035519864540
  H           1.93359995540112     -0.00786842490325      0.75151185845679
  C           1.61510211320843     -2.60443192245008      0.53549956550147
  C           2.68859961553655     -1.74030530942189     -4.56605257179547
  C           2.18012832431221     -1.01956738873806     -3.56754560302005
  C           0.89558627370975     -1.37087030085483     -2.88986370155706
  O           1.09666509432166     -2.13985388414275     -1.69878132402057
  N           3.91939259757960     -1.52919304440422     -5.14406984920494
  H           2.15925615443859     -2.60304271578096     -4.94915719339701
  H           2.71587171203187     -0.16392776511252     -3.18507638488496
  H           0.29719815127872     -2.03042439823736     -3.52420967345881
  H           0.31816627107500     -0.47172743347509     -2.65252691177082
  N           1.46461263638325      1.81255255819566     -1.72496070020891
  C           0.29133803562349     -2.79594990670110      1.27798475151420
  H           2.39155036285317     -2.30023506242634      1.23810510330347
  H           1.90815782384375     -3.54634275768176      0.07022062149611
  H          -0.02074447499039     -1.86622513323982      1.74868364246256
  H           0.39963802944113     -3.55583675821556      2.04780181418600
  H          -0.48570092723052     -3.11095039615272      0.58591282533549
  H           4.34613573919068     -0.64087007960921     -4.92793177641446
  H           4.01780888205829     -1.80740724843844     -6.10687457541832
