20
Coordinates from ORCA-job NEB E -33.470489912070
  C          -0.36107253805101     -1.42212202427293     -0.39542520950174
  C          -0.83153877336770     -0.20120270417664     -0.85113727233937
  Cl         -1.31154546503892     -2.35670364684755      0.70906855684166
  H           0.22660710228648     -2.03233626342692     -1.06608655351645
  O          -0.23382805930591      0.20798430713597     -2.01832422189803
  C           1.08007718874871     -0.59359485980432      1.04195827283879
  C           0.16957425637472      0.18432661766897      1.74869423873897
  C          -0.43220083727716      1.29066972956351      1.14903735940417
  O          -1.49842740819600      0.60773681791882     -0.13932208395655
  N           1.66140930994161     -1.69364462356587      1.61135876323149
  H           1.66413665152922     -0.13747273208107      0.25190930848140
  H          -0.31626989193764     -0.26741315589447      2.60157486440942
  H           0.16204677233394      1.90225179695355      0.48353255141964
  H          -1.18548279814975      1.83099631748066      1.70025389023813
  C          -0.47238846037384      1.54158755927814     -2.43119888120796
  H          -0.59285280140328      1.52563104355045     -3.51370503025062
  H           0.38104176150201      2.17314629439705     -2.16851392800647
  H          -1.37517663570434      1.93357891125067     -1.95855310629407
  H           1.06586571059754     -2.20760815207385      2.24546202956972
  H           2.20002491549131     -2.28581123305419      0.99941645179786
