20
Coordinates from ORCA-job NEB_reactant E -33.491107128120
  C           1.79664953677353     -0.08077496941524      0.58506056305152
  C           1.95527891059182      1.24322316305536      0.58939958950540
  Cl          1.10749571255368     -0.91803741521770      1.91046812571278
  H           2.10269842402483     -0.69080639892105     -0.24593709695103
  O           2.63735181084369      1.81263710639893     -0.45108550408034
  C           4.14968378946217      0.74843974898728      3.00495192102833
  C           3.07046009336930      1.46124331933615      3.32907723599357
  C           2.54229031376432      2.54975843914383      2.45965467272706
  O           1.50550186213115      2.05404262032933      1.57349120163076
  N           4.68865159556469     -0.26019260674163      3.76976704287897
  H           4.72924858061168      0.99980558965916      2.12545389477969
  H           2.47757198674654      1.19641120980065      4.19129052399297
  H           3.34568322368621      2.99308019895688      1.85931762789082
  H           2.03872528906901      3.32562378424105      3.03841967604918
  C           2.13791168729702      3.05655222866534     -0.91975248233771
  H           2.91324564099796      3.46603288873115     -1.56373718263911
  H           1.93198811889061      3.74638011360743     -0.09886358400314
  H           1.22051986303462      2.90367613668358     -1.49588518131982
  H           4.06592940913232     -0.64941349550820      4.46173010711667
  H           5.23161415145486     -0.95018166179231      3.27697884897344
