23
Coordinates from ORCA-job NEB E -42.994357576070
  C           0.43755351856233      0.13781495176203      1.15483289318931
  C          -0.91474213634260      0.17224578174035      1.54130633806688
  Cl          1.41213941163326      1.44469117162570      1.84115134423073
  H           0.96767649699144     -0.80155576097864      1.26558765987656
  C          -1.70290084593914     -1.06800898763985      1.70439390433178
  C           0.45198965088546      0.53883561426129     -0.70312906807470
  C          -0.80359608460832      1.10646394669312     -0.96616963052789
  C          -1.28363344680052      2.05479629885079      0.02277850357017
  O          -1.65034664267933      1.22562317207931      1.23553732016897
  C           0.89683483958916     -0.67561013836200     -1.48843342718456
  H           1.25207526959668      1.26479210040129     -0.58734367968431
  H          -1.54435403145648      0.52905647260367     -1.50198611118504
  H          -2.22139159427694      2.55059942000398     -0.21396286590872
  H          -0.53027233260700      2.76988504216934      0.35913176432787
  Br         -3.33035987840530     -0.68357004530871      2.67550933348652
  Br         -2.31718427790110     -1.83606331623090     -0.10905761625940
  Br         -0.73856989927027     -2.47762051349010      2.59469502578910
  C           2.37417215187964     -0.99693811105167     -1.29646832280597
  H           0.71204772812362     -0.47220206174340     -2.54572600724799
  H           0.29141156323203     -1.54275205751157     -1.22198783128285
  H           2.99065147298144     -0.14749166515953     -1.58211448931361
  H           2.65329440611591     -1.84493315365888     -1.91603879072486
  H           2.59750466069604     -1.24805816105564     -0.26250624683799
