23
Coordinates from ORCA-job NEB_reactant E -43.029348803600
  C           1.71046935994034     -0.06327087203238     -0.08537828506473
  C           1.58262955589928     -0.98534819569471     -1.04283911911573
  Cl          1.60256277796409      1.62945251898679     -0.36254100417478
  H           1.87460720347334     -0.32342014406517      0.94702505857961
  C           1.65807799287295     -2.45375098608559     -0.75069449806643
  C           3.91691227417402     -0.98236835631952     -4.41761099764191
  C           2.69182883381796     -0.49255436942107     -4.31176268901477
  C           2.18422211059445      0.17671726270440     -3.07126297944316
  O           1.40752948962851     -0.80958315184616     -2.36501716180308
  C           4.43001206514032     -1.74718798115076     -5.59130098339102
  H           4.62035925735290     -0.86325233564819     -3.60212850311030
  H           1.96803340547293     -0.62668198168077     -5.10221483853101
  H           1.53249888544965      1.02442792417874     -3.30372667321049
  H           3.01591055432720      0.50984684880398     -2.44570722015649
  Br          1.34990381046380     -2.94622027336916      1.08636104079670
  Br          0.37954198879927     -3.39355932384642     -1.86328617735088
  Br          3.45590294725722     -3.07328839818069     -1.26068037859488
  C           4.73710555582141     -3.19006585642718     -5.18644856954925
  H           5.34610045723661     -1.27550801480697     -5.95586493911584
  H           3.69329058854720     -1.73784661236540     -6.39587154453512
  H           5.46119885177809     -3.21462621710547     -4.37530095800071
  H           5.14100816562809     -3.74231319179962     -6.03091835953754
  H           3.83099386836037     -3.68679829282867     -4.84863021996820
