21
Coordinates from ORCA-job NEB_product E -42.301063304820
  C           2.16826018483188      0.84946282495827      1.45469643120974
  C           2.30495941539713      2.00832223749772      0.47019870834318
  C           1.04130833415668     -0.04921731903015      0.92773343018834
  H           3.09181641447425      0.26329520522063      1.50215764070806
  C           3.57500928608818      2.00544305188513     -0.23161857567776
  C           1.83441428972512      1.41584040610571      2.85351464173716
  C           1.45049597280167      0.33259269330912      3.82101152107492
  C           0.28193515191985      0.28106995978874      4.43001190671902
  O           1.43715279490379      2.81603702245244      0.27437988027133
  C           3.05215984882602      2.16666884230723      3.40070197815389
  H           1.02078671512815      2.14317317216771      2.75241883971451
  H           2.20512399314427     -0.42176489019378      3.99095460620320
  H          -0.48287424961559      1.02257295551727      4.26420424045202
  H           0.04016256458970     -0.51061879153779      5.11647044847155
  F           1.06358905182898     -1.26394214770201      1.55359169517643
  H           1.16918438184799     -0.24736943962828     -0.14254859576140
  H           0.05953153440312      0.39694693592040      1.11291154192154
  N           4.58656558682860      1.96593217631863     -0.76445595870600
  F           4.13373531500250      1.35671576934733      3.47464759714460
  F           3.40674358961932      3.18538941321217      2.57765646216603
  H           2.87483982409840      2.58754992208351      4.40146156048961
