18
Coordinates from ORCA-job NEB_product E -42.009771917290
  C           1.52702386695809     -0.84338332078750      1.68184198946308
  C           0.79868582043766      0.34797077550519      1.13571266489239
  C           1.27332036265358     -2.05140364887052      0.77397254659663
  H           2.60972362864089     -0.67067120266687      1.67745825268429
  I           1.54619800448308      2.20483560820372      1.95395659761075
  C           1.13914887814772     -1.12154492820379      3.16489587868042
  C          -0.24588611095300     -1.69715153040402      3.27931654012878
  C          -1.32329580059075     -0.96047263655959      3.47096914445795
  O          -0.09261966231595      0.36814659394957      0.36667830655015
  O           2.13990841801378     -1.96953842180558      3.66638406112361
  H           1.17573763109743     -0.15227196722976      3.69313513380070
  H          -0.30503451404003     -2.77272961927477      3.18662464861411
  H          -1.27276957875921      0.11270421155697      3.56345138810430
  H          -2.30176867447449     -1.40066564517438      3.53833488669892
  F           1.85720209145981     -3.16131284952971      1.22739037731690
  F          -0.01896650875204     -2.34142465020777      0.60373999334323
  F           1.78179765646099     -1.82444817522580     -0.44751916405825
  H           1.84679449153243     -2.35933859327537      4.49675675399203
