23
Coordinates from ORCA-job NEB E -32.586761073920
  C           0.28532468321817     -0.24620342650503     -0.74532900722844
  C          -0.87866140580090      0.37539156190304     -1.21020567059547
  C           0.15931043198572     -1.62927748153104     -0.14272222947525
  H           1.17550567790709     -0.11207069340908     -1.35549509632041
  N          -0.77785701483413      1.42637531434508     -2.12340947205292
  C           0.56047538604413      1.03172500735394      0.79580289406482
  C          -0.61817148339018      0.86188810411172      1.52067785426641
  C          -1.83083945385364      1.21943204248034      0.88652110085891
  O          -1.96898699332528      0.30930110112047     -0.51814665477715
  O           1.74244323665963      0.67818224189446      1.39429345172301
  H           0.62912432020355      1.91084450525611      0.15509401108773
  H          -0.62170011794470      0.11705495474159      2.30046835026023
  H          -1.86414976511179      2.20276602627969      0.42662105033634
  H          -2.74708240924401      0.96124673763710      1.39991726340910
  C           1.46991100722366     -2.19116711531317      0.39363364991413
  H          -0.21083380932427     -2.29861380079593     -0.92808245089437
  H          -0.59426391832190     -1.61196334804057      0.64449310476383
  H           2.23480000624399     -2.18536804730105     -0.38150201088437
  H           1.32485562034779     -3.21840720635196      0.72026935886238
  H           1.82237432447442     -1.60882264120105      1.23882023397207
  H          -1.66832622639838      1.78911425801217     -2.42888934806408
  H          -0.10585864627740      1.31478569154751     -2.86505108016273
  H           2.48260654951845      0.90378621376568      0.82222069693624
