23
Coordinates from ORCA-job NEB_product E -32.640143390420
  C           2.50971757294776      1.19844100456506      0.54192700048798
  C           1.40926087119517      1.67680452645487     -0.39806642302436
  C           2.19877686389324     -0.22453736272886      1.01504521862945
  H           3.46915860255621      1.20137811072196      0.01482096167192
  N           1.82516984690778      2.58789207774284     -1.31186304618523
  C           2.63849327065732      2.24110222408970      1.68265669138341
  C           1.58607532134539      2.05288194144071      2.73805591745774
  C           0.43077494846274      2.68919559202901      2.74507176040607
  O           0.25916328319912      1.30947581153999     -0.33938945339150
  O           3.94991991019892      2.14314626342749      2.20866887693193
  H           2.51112379046396      3.24339298165613      1.23334596185474
  H           1.83835190583849      1.34323290758338      3.51442653681962
  H           0.16651008180226      3.39215471577471      1.97273891530192
  H          -0.30804572468153      2.51660526809072      3.50827298942139
  C           3.35168708920144     -0.86599541330084      1.77424502113492
  H           1.97095193858897     -0.82459630906465      0.13063066360923
  H           1.29712869328980     -0.20304333870534      1.62796881645675
  H           4.23041771547740     -0.94091726089101      1.13736183566476
  H           3.07539256301069     -1.86624589671332      2.09998950383296
  H           3.62098577363061     -0.27640280400415      2.64501441324037
  H           1.15544397618080      2.96593319592543     -1.96145498193329
  H           2.78134262856134      2.88718407044587     -1.37438789270812
  H           4.00419907727211      2.68411769392030      3.00352071293735
