18
Coordinates from ORCA-job NEB E -42.779345702730
  C           0.65310652389801      0.19858549410404      0.98974234711342
  C          -0.60759924026889     -0.40972407412232      0.75749840092943
  C           0.62627817203705      1.54705543120845      1.46348343462311
  H           1.41039393589572     -0.40131591939630      1.48911735746813
  C          -0.74227258707671     -1.91108802823038      0.88648285458045
  C           1.29397012947310      0.46227173474556     -0.75560106481687
  C           0.25967182271282      1.18219848812533     -1.36870300902850
  C          -1.01709826559806      0.56634173240266     -1.45675357190982
  O          -1.49614030766773      0.21770277997673      0.06530528055218
  F           2.46893265235645      1.09411553887201     -0.58563451401956
  H           1.47286677739839     -0.57892670349861     -1.01989069041711
  H           0.33180949943606      2.25989548065409     -1.35630494850705
  H          -1.04448943034862     -0.43262045583076     -1.88372364605751
  H          -1.82403146250331      1.19655655268680     -1.80949174874696
  N           0.58038789493234      2.61902449847505      1.85533939983771
  Cl          0.04525429391554     -2.51007618470616      2.35612069380338
  Cl         -2.45017582779811     -2.36992598220295      0.90163987640572
  Cl          0.03913541920595     -2.73007038326323     -0.52862645181015
