18
Coordinates from ORCA-job NEB_product E -42.810013078230
  C           2.81501691945641     -0.42927829525918     -1.31743474767903
  C           1.59243644144039     -1.32622821047453     -1.29236621570218
  C           2.61115365741006      0.63552485357020     -0.35439867428548
  H           3.70696433455947     -0.99280314313985     -1.01817645290593
  C           1.63108243899039     -2.41199141071824     -0.20224552129862
  C           3.04763382926834      0.15266402199586     -2.73973854879671
  C           2.21713935121642      1.36866138815487     -3.02105261356131
  C           1.14468502452807      1.35464206880335     -3.78798285633782
  O           0.68513926777557     -1.25532164109894     -2.06266473448768
  F           4.38611451258385      0.46900153538910     -2.82965821399016
  H           2.86415217146792     -0.63789837966786     -3.47843748068389
  H           2.56869629429143      2.27165298176616     -2.54242970932636
  H           0.79397477184629      0.45236866951630     -4.26005893628648
  H           0.56550805358216      2.24528459080929     -3.95552276119536
  N           2.45868059911919      1.49863670349435      0.37602680576669
  Cl          2.24002572522852     -1.79976146218164      1.34626866912633
  Cl          0.03798368985286     -3.13552886118862      0.01570335019323
  Cl          2.76501291738266     -3.63712540977062     -0.85063135854924
