18
Coordinates from ORCA-job NEB_reactant E -42.814231512650
  C           2.06683124291233     -0.14483741435473     -0.29789406575947
  C           1.54425568275345     -1.01401693704188     -1.17840277936548
  C           2.23746569238448      1.23720404227083     -0.46924829394400
  H           2.40021210207298     -0.50848496164553      0.66305309826845
  C           1.43895855663801     -2.49270548584130     -0.87340537630596
  C           3.53936141593241      0.12233295507583     -3.45402811615754
  C           2.50829154551951      0.93915332393488     -3.34974444835119
  C           1.12400527366461      0.49394102636752     -2.98779648255905
  O           1.06476958612423     -0.80095155550509     -2.41259691612530
  F           4.75375356150123      0.57018334682475     -3.79168612774649
  H           3.53395498553112     -0.94587375407163     -3.28954495714825
  H           2.62934361669101      1.99510606687870     -3.53469378418368
  H           0.51207560313062      0.40998716822594     -3.89308170819946
  H           0.65631669085903      1.22852725516633     -2.32243752420637
  N           2.40029769172814      2.37199304663869     -0.52931628805147
  Cl          1.79982582518472     -2.91008527726046      0.80152119061490
  Cl         -0.20616458039634     -3.06000765130355     -1.25325790371904
  Cl          2.59504550776845     -3.35566519435930     -1.93103951706061
