20
Coordinates from ORCA-job NEB E -46.023658732600
  C           0.36807035811375     -0.62630702310478     -0.70912478692054
  C          -0.89797134061548     -0.00661802347799     -0.62863362511505
  C           0.47284204382441     -2.05442036526393     -0.20122313837865
  H           0.89085046271849     -0.51694298159054     -1.65728194180959
  C          -1.20131183147041      1.11922973439590     -1.60498810321762
  C           1.33901584092364      0.42327782120546      0.49547070192416
  C           0.57131292202164      0.36933639115204      1.67003421954372
  C          -0.76226829950769      0.87493863759129      1.62816614064929
  O          -1.52835160659843      0.00565356950783      0.51096047595221
  Cl          2.94524193665798     -0.26063863236341      0.56042617665153
  H           1.35187397328592      1.34852524981569     -0.07161742343671
  H           0.82315288719147     -0.36714407396493      2.41846230398100
  H          -0.88296325302103      1.88230029224854      1.23764704311986
  H          -1.36055351356633      0.70461499923199      2.51549855229770
  F           1.61671080078212     -2.64213531146690     -0.65916730159861
  H          -0.36051545398325     -2.63970394782454     -0.60638475826698
  H           0.47695558626613     -2.12797005938801      0.88873830905458
  F          -2.49127985473750      1.45002176384486     -1.61927023452649
  F          -0.52255987091821      2.26015969674759     -1.30946559930623
  F          -0.84825178736719      0.80382226270384     -2.85824701059757
