20
Coordinates from ORCA-job NEB_reactant E -46.052867352190
  C           1.79697387675853      0.18078989159661      0.01839838722920
  C           1.48392373048744      1.46676627491148      0.16228477556865
  C           2.12820546872903     -0.85514330673267      1.04696279991486
  H           1.80432859511223     -0.21479137020631     -0.98697254142040
  C           1.13650314590144      2.29647058359977     -1.06540967340059
  C           4.14860782442711      2.84373842584386      3.25661418559762
  C           3.45142644715206      2.09537666822075      2.41767691140725
  C           1.95691550769784      1.96986234246693      2.48108965798636
  O           1.34786252776126      2.27991921541027      1.23903731230772
  Cl          5.85405722242242      2.97582615339480      3.18444607981245
  H           3.69919479318415      3.40895875620809      4.05918203581439
  H           3.94387739348191      1.56379918510247      1.61620491428530
  H           1.54160646074963      2.70667484488443      3.17218104225214
  H           1.66335204928915      0.96793797365599      2.81514582821369
  F           2.56187069158317     -1.99069962989530      0.41387775175060
  H           1.24170748309296     -1.14958859682838      1.62427876648070
  H           2.93560661032240     -0.55872207955897      1.72642952585958
  F          -0.10217027770314      2.79821878304630     -0.99062102675623
  F           1.96834031297850      3.33775131482861     -1.20117610531054
  F           1.20081013657192      1.60365457005129     -2.20753062759273
