20
Coordinates from ORCA-job NEB E -54.657857633970
  C           0.86273636793543      0.51912797640510      0.08304724076826
  C          -0.04589163775434      0.10410534842665      1.08308195293543
  C           0.68228396928548      1.92766055471375     -0.45970309438786
  H           1.91982261506586      0.35109952485534      0.28304982682598
  C           0.43720376022900     -0.95506604763539      2.06546510435596
  C           0.41135977588097     -0.61008221453336     -1.34665974874879
  C          -0.97027983934963     -0.41865294539625     -1.48484607530776
  C          -1.81337709086072     -0.71500781317750     -0.36963999408154
  O          -1.32494597917772      0.16738189800473      0.86283685865755
  F           1.18501039707487     -0.22953487121473     -2.37549496860358
  H           0.80087843289464     -1.53822810163933     -0.92971817240863
  H          -1.30852022110406      0.27743958333202     -2.23773125868981
  H          -1.71948327693366     -1.71736610486103      0.04386100039447
  H          -2.84817523217234     -0.41178313384016     -0.48030368877781
  F           1.52212421235318      2.20207525280313     -1.45908371970072
  F          -0.54660493382034      2.20793253634223     -0.89287982473280
  F           0.95598683200532      2.81074544316092      0.51401124678124
  F          -0.33837938685653     -1.05268211479519      3.13861657229742
  F           0.44838138482942     -2.18559253959393      1.48603632632811
  F           1.68986985047516     -0.73357223135702      2.47605441609489
