20
Coordinates from ORCA-job NEB_product E -54.683817843640
  C           1.63675600221962     -1.05054589735852     -1.20701246440827
  C           0.75716790485941     -1.35816756704364     -0.01711672916524
  C           1.33850521532321      0.36641924769911     -1.71858385165463
  H           2.69799602355669     -1.06499493503542     -0.93133201210787
  C           1.50337284412447     -2.16303609431287      1.09233850382307
  C           1.42187975164308     -2.14024759156860     -2.31048806377867
  C           0.08436468918825     -2.04109902539427     -2.97705411438256
  C          -0.97992652516619     -2.70033582753440     -2.56051075886231
  O          -0.39591312746082     -1.08238751015529      0.09485254134298
  F           2.42971876955814     -1.98558326936068     -3.22626456312216
  H           1.57373185625176     -3.12779743269171     -1.85453060273757
  H           0.05064502060969     -1.38024293411069     -3.83048375461860
  H          -0.94996088883146     -3.36694523462619     -1.71424408792332
  H          -1.92887573333157     -2.59385518994720     -3.05375736149416
  F           2.08636358095078      0.68473080852951     -2.77382404360476
  F           0.06823819881265      0.56410235993650     -2.06391252972963
  F           1.62374457195130      1.26013753628394     -0.75897913072037
  F           0.73614997664186     -2.39206037960166      2.14624930485643
  F           1.90302545874655     -3.35199782354953      0.60791734369150
  F           2.60281641035260     -1.52219324015839      1.50213637459613
