20
Coordinates from ORCA-job NEB_reactant E -54.688795126920
  C           1.85469763444093     -0.05449166234842      0.05094646328831
  C           1.22904259470976     -1.19720813677511     -0.26054693960135
  C           2.01836161197291      1.02718144523525     -0.97080006400394
  H           2.26755386467612      0.13851936476797      1.02423730670573
  C           1.08720235645933     -2.27034245526182      0.81137375905665
  C           0.01288271593271     -3.39924435897921     -4.15880192288191
  C          -0.30954923803445     -2.46378495596547     -3.28589407025489
  C          -0.00313923413901     -2.57262850834260     -1.82763304917629
  O           0.75261820851414     -1.40599848761020     -1.48549393580530
  F          -0.29068064231972     -3.28511950379609     -5.45291343504432
  H           0.51198072449863     -4.33319752576924     -3.93969263015435
  H          -0.79837031491431     -1.55668989493249     -3.60598836372451
  H           0.56780819816704     -3.48362423509163     -1.62244346230878
  H          -0.93818468209306     -2.58618147466806     -1.25300970069217
  F           2.77076109822889      0.64685355145459     -2.01552497386857
  F           0.84823707106290      1.44159141998011     -1.48122737700598
  F           2.61063315608405      2.10537559532742     -0.44525499987226
  F          -0.19485800708361     -2.58344855257108      1.05221384319412
  F           1.70124757624750     -3.41200229225594      0.46478264047291
  F           1.61325530758925     -1.88955933239799      1.97407091167692
