77
Coordinates from ORCA-job A2R E -108.410693652170
  Ru         -0.63237448445756      1.99973311291650      0.05752907237663
  H          -0.49818029031571      3.54261184646456      0.13376024425365
  N           0.84088555258623      1.92708763888674      1.53195413202752
  C           0.55164655276484      2.27085690547042      2.80096088308074
  C           2.09536036632892      1.52925152974730      1.25049264322009
  C           1.48998648526604      2.18762155402026      3.81937135908219
  C           3.07540699321533      1.42987267640191      2.22768864496833
  C           2.77284141642503      1.74904707673671      3.53901522151800
  H           1.21080461881212      2.46953868927256      4.82330440213721
  H           4.06136759362040      1.09052618165252      1.95303949546229
  H           3.51476638842753      1.66762896280871      4.31752432266696
  P          -2.02054095550461      2.11263381795493      1.86972885216597
  C          -3.44642640826300      3.36465032240486      1.96541150580651
  C          -2.55549761475543      0.49798530188239      2.73593054409426
  P           1.17224867067852      1.90826925183948     -1.28787523764458
  C           1.53304581101926      0.98803616785719     -2.87225796516412
  C           1.94273805614729      3.52290959135508     -1.84579878247278
  C          -0.81456171644288      2.81354217353742      3.08614481975253
  H          -0.79754032773366      3.88984747669594      2.87183705463105
  H          -1.09826294920495      2.66742737058668      4.13136804222050
  C           2.42443767214209      1.16684902980489     -0.16348849159713
  H           3.45786699622897      1.40867120038182     -0.42797842111769
  H           2.29435796751635      0.08023909459288     -0.28076363773355
  C          -1.93366735752792      2.06344137559260     -1.24324339598839
  O          -2.74506743253861      2.07703069314622     -2.06855266586063
  H          -0.63294481887768      0.44389269800542      0.01636486476648
  C          -3.74960870202648      3.89879961335562      3.36608563149823
  C          -3.06258353568566      4.55330771201723      1.08208587329291
  C          -4.68489582589154      2.71391827430069      1.34758072271461
  H          -2.90894626608367      4.46221751004982      3.76432070093221
  H          -4.59962545874923      4.57784080484989      3.30138468577023
  H          -4.00695219065410      3.11549600453401      4.06883179758869
  H          -2.90889252318708      4.23157273278173      0.05393201202799
  H          -3.86047122867209      5.29500264840499      1.10012751805639
  H          -2.14838548790257      5.03288281865320      1.42550009292458
  H          -4.40942953296011      2.20337153383371      0.42321716606083
  H          -5.15024039534787      2.00261024557452      2.02489347181989
  H          -5.42493519599860      3.47623625907249      1.10646594930079
  C          -1.25552191521872     -0.23156661679562      3.09118252038632
  C          -3.37921998917937      0.63669697141949      4.01434700479023
  C          -3.32310256463247     -0.33708245921158      1.70879826308475
  H          -0.74438152818449      0.24218522170609      3.92752692212898
  H          -1.47748343689043     -1.25834588791204      3.38019643789801
  H          -0.57934275028061     -0.26140569958404      2.23747186624995
  H          -4.37574488246442      1.02182469257225      3.81854964506425
  H          -3.49347650616790     -0.35107857661227      4.46172971734153
  H          -2.88437239666663      1.27276926267194      4.74568818987884
  H          -3.35918598046925     -1.38053874288005      2.02123462443684
  H          -4.34515312617097      0.00994887174812      1.58871727105712
  H          -2.82528273815956     -0.27348763515816      0.74020303858318
  O           1.74108500393866      3.95529403069935     -2.95138898463873
  C           2.69825416974224      4.25831311141555     -0.77612968927800
  H           2.21536794470513      4.10300781134026      0.18868686865227
  H           3.71494819218384      3.86850031876833     -0.72788115874579
  H           2.74095648890112      5.32034096131597     -1.00889887752065
  O           2.51330721314998      0.29436964480669     -2.94935785009793
  C           0.55612560537110      1.28773254280554     -3.95143120426204
  H          -0.45261054057286      1.10961023458763     -3.57540143695383
  H           0.63738650241396      2.35701820256250     -4.17053663991868
  H           0.74857092844416      0.70261147373632     -4.84751127367746
  C           0.80112619929172     -2.25363068754823      0.15285986125531
  O           1.68944470415092     -1.80304143625768      0.84602868980999
  C           0.88998339885887     -2.26083764078673     -1.32783682408074
  C          -0.22720077245847     -2.09002014776269     -2.14171491228572
  C          -0.09081026255637     -2.12353618063216     -3.51673538428617
  C           1.14941896309629     -2.35013431689053     -4.09171633889368
  C           2.26559570298626     -2.51428792447812     -3.28904670821171
  C           2.13907734061447     -2.45472367401512     -1.91478642315915
  C          -0.43848656537738     -2.87918656272008      0.73466539356022
  H          -1.19440755060930     -1.89774089602250     -1.70376986767497
  H          -0.95832478137040     -1.97465684533524     -4.14341427075973
  H           1.24748983139062     -2.38743040840792     -5.16687169217338
  H           3.23562597128165     -2.67398069586790     -3.73410603596591
  H           3.00209217053552     -2.57168979421078     -1.27543993587950
  H          -0.29077510734790     -3.07335439453674      1.79408738019318
  H          -0.68371708654998     -3.79994559774286      0.21107882066423
  H          -1.26678629212688     -2.18347842823093      0.61772986478919
