77
Coordinates from ORCA-job A3R E -108.384460187140
  Ru          1.50189120310209      3.91947017724030      0.04920588199793
  H           2.83040031566568      4.63033916406145     -0.08018936946180
  N           2.35705914634384      2.64414166254777      1.48779893464418
  C           2.55956654331074      3.03857815063393      2.75322524391438
  C           2.63507753103344      1.34314486991699      1.13365772844930
  C           2.91600868557966      2.16759184350203      3.75891443923415
  C           2.96427581260491      0.40378678349209      2.15492211829676
  C           3.08919210493444      0.81001325096888      3.44706726289000
  H           3.06542108018910      2.52597272917302      4.76466639306180
  H           3.12483156609331     -0.62330979824472      1.86578853614009
  H           3.34242636978725      0.10774136121877      4.22731285326532
  P           1.18445475386846      5.25617698798129      1.91448945839053
  C           1.69445358531534      7.08297989100878      1.86795838024845
  C          -0.41107168885543      5.06644601953097      2.92926686987512
  P           2.41132484590665      2.30471372782722     -1.35053971930152
  C           1.98964455465279      1.50989352126760     -2.98537697871753
  C           4.18132776187813      2.78891788100875     -1.85460946015410
  C           2.45350371670751      4.51392394856344      3.02543518977658
  H           3.40813525800922      4.97122003543261      2.73746363032482
  H           2.27210929459588      4.72235469931990      4.08221774185358
  C           2.58012408543124      0.98204616832396     -0.20962400060423
  H           2.84194934101341     -0.00830352596861     -0.55110061002325
  H           0.51979168531493      0.61811816719247      0.71219988119925
  C           0.75095505072690      5.04435504134577     -1.19869746523964
  O           0.30808210642108      5.77583357091420     -1.97677082821647
  H          -0.05805649458003      2.89476178858317      0.08565672621778
  C           2.18405842078964      7.63153291723949      3.20957928673490
  C           2.84004860139249      7.20309285182522      0.86020664865228
  C           0.52365969896446      7.91255999385299      1.34031579667828
  H           3.08767498385424      7.12412736833117      3.53830537514193
  H           2.42519987813105      8.68694552607374      3.08623394321504
  H           1.43754849386239      7.55337047069417      3.99137703666401
  H           2.50555965522705      6.92006969453863     -0.13708493920936
  H           3.19215870175481      8.23312539382831      0.82830196344164
  H           3.68164340244405      6.56747518568795      1.13038488569577
  H           0.09255332611799      7.43358729473732      0.46148435636811
  H          -0.24974052699627      8.04688019048544      2.09172065692326
  H           0.87566748479322      8.90066537761180      1.04725513301652
  C          -0.45052805499958      3.59074231254082      3.34460426687267
  C          -0.53575284015286      5.90986262444170      4.19535730786521
  C          -1.57817455053048      5.37288469525815      1.98628375569414
  H           0.25267332871140      3.39071576575706      4.15066933035526
  H          -1.44518832373125      3.33132942518724      3.70715605308820
  H          -0.20963130293385      2.92228705042825      2.51812640640056
  H          -0.63983431514617      6.96813433481096      3.97315181373602
  H          -1.43145204597044      5.59839020538546      4.73324772671754
  H           0.31363145658517      5.76458466748492      4.85975894210078
  H          -2.50269970898696      4.94112230696270      2.36751074231893
  H          -1.73276863723905      6.44290070727582      1.88125683088241
  H          -1.38348648566986      4.96202236588186      0.99303292386473
  O           4.49135159987454      3.17439630402245     -2.95067364867090
  C           5.15929621677143      2.63103306309872     -0.72668088841460
  H           4.72710948781671      3.02076434843204      0.19431019324200
  H           5.35589138934309      1.56817738394476     -0.58716642813861
  H           6.08962146060597      3.14389320336534     -0.96011903804974
  O           1.86423682758526      0.31339046282692     -3.02438396493029
  C           1.95744612855111      2.44048575102724     -4.14637879766429
  H           1.43332739403994      3.35701504224796     -3.88002821384793
  H           2.99181751593682      2.71724616736849     -4.36801388722850
  H           1.51193667769827      1.96630552524900     -5.01713134230043
  C          -0.73147447884270      1.94377004670100      0.04945401262126
  O          -0.30843058224733      1.03109940135746      1.01444364122740
  C          -0.74614654836877      1.39077892003141     -1.35742479850544
  C          -0.89844365747930      2.24816343470532     -2.44052507522927
  C          -1.08431445472803      1.74007639725671     -3.71338405811614
  C          -1.09442338898101      0.37164649777404     -3.92032160680981
  C          -0.92382325269698     -0.48626363849098     -2.84853135559040
  C          -0.76756455233967      0.01881723235255     -1.57068274704430
  C          -2.17034817897869      2.33926107642712      0.39123555765629
  H          -0.88821683306285      3.31987578743960     -2.28247134248678
  H          -1.21887210870407      2.41682586675041     -4.54454441392360
  H          -1.22992416746392     -0.02453664665830     -4.91543086914555
  H          -0.92069730448210     -1.55413544474215     -3.00438079624264
  H          -0.67035859721192     -0.65646999575998     -0.73297415295345
  H          -2.24705847501516      2.63940992757873      1.43067917214314
  H          -2.80393376693137      1.46737819386354      0.23957722394526
  H          -2.51472320601105      3.14197884866726     -0.25432745682300
