77
Coordinates from ORCA-job A3S E -108.382465243620
  Ru          1.75520837656810      3.67968291773157      0.05967757920302
  H           3.12614251075159      4.30693640918625     -0.10072581173066
  N           2.48296188501718      2.71106120184250      1.77780271387949
  C           2.60789233290440      3.34594341357568      2.95388647975900
  C           2.81002491817561      1.37188926421958      1.69930489149275
  C           2.89373602291614      2.69343537690726      4.13125746820681
  C           3.07242623470483      0.65444354199939      2.90840199139935
  C           3.09511098549422      1.30210945363147      4.10197252381945
  H           2.97533153211060      3.24296715644925      5.05521432512713
  H           3.26236537186700     -0.40548490051723      2.83393433839461
  H           3.29202122870329      0.76908545854099      5.02064706424321
  P           1.32029659812601      5.34690962280041      1.59842231350190
  C           1.82875732382270      7.13615851624426      1.23972200215886
  C          -0.35173916622548      5.33288230193978      2.51274810396897
  P           2.62089461260532      1.77606749962296     -0.94627721011567
  C           2.14550219922638      0.59925649200921     -2.32457089733232
  C           4.33284611808241      2.13118169968368     -1.67341527353570
  C           2.48919388360085      4.84587492828309      2.92906200750564
  H           3.46693455527274      5.24544849793691      2.63270587468343
  H           2.22808972000561      5.25258074017939      3.90883983673757
  C           2.87502227828168      0.75884061855834      0.46140393264934
  H           3.15425668217017     -0.27788661771839      0.34583706870534
  H           0.32245911814294      0.17466463073718     -0.22365513772667
  C           1.14284909761401      4.53034263963231     -1.45436946508353
  O           0.78254234486463      5.07357063358940     -2.40794782181055
  H           0.19159073305637      2.69313485699731      0.16245531530035
  C           2.21084208512428      7.94658163714751      2.47917705705649
  C           3.04992678542020      7.06491537088090      0.31978314595666
  C           0.70117761589188      7.82274006638764      0.46914456789141
  H           3.07339104533462      7.51615883543894      2.98193949872188
  H           2.48013117006874      8.95506310331911      2.16663322288466
  H           1.39778723384449      8.02839374228021      3.19142326582529
  H           2.79498725515673      6.57354487870072     -0.61863859562482
  H           3.40362604388277      8.07121129407549      0.10038653782467
  H           3.86687065291098      6.51243904058814      0.78104291356599
  H           0.34581253920786      7.17197647329345     -0.32972733855029
  H          -0.13190409429822      8.08273942796908      1.11680591105535
  H           1.06987691462886      8.74216592710358      0.01672369768576
  C          -0.41724765298023      3.96024711857253      3.19026591885460
  C          -0.57490862601872      6.39976227713867      3.57997993931152
  C          -1.44914125508530      5.41712842323088      1.44947206243643
  H           0.20541160153692      3.92454012762256      4.08137191116221
  H          -1.43995070260664      3.72998465148470      3.48778076751210
  H          -0.08763438133068      3.17060013533883      2.51378945443198
  H          -0.67194913712305      7.39250892615053      3.14963774174589
  H          -1.50354088678853      6.17671339499919      4.10583130946556
  H           0.22727103704312      6.40474262501066      4.31491928908330
  H          -1.62117265061967      6.44121632832707      1.13081173832657
  H          -1.16137935140696      4.83425972607379      0.57239972371739
  H          -2.38719438035121      5.02169842236383      1.83776720552962
  O           4.51233024083255      2.32648501089062     -2.84784167739357
  C           5.42021114441296      2.15514257055348     -0.64184922086679
  H           5.07375645801781      2.70659522426108      0.23209846965700
  H           5.62372867288037      1.12935438802246     -0.33501011160437
  H           6.32518468926194      2.60156063240382     -1.04726456049586
  O           2.19615262169512     -0.58040494807646     -2.10270664589044
  C           1.82682467121080      1.25108840598377     -3.62055941686113
  H           1.06366174630044      2.01172731691620     -3.46513208617035
  H           2.73211041653952      1.76177307408656     -3.95960547638685
  H           1.50316539558132      0.52367844726298     -4.36121332719963
  C          -0.60757845883030      1.91490731338820     -0.16700078296328
  O           0.03539018564080      0.86279004008865     -0.84044528450648
  C          -1.31219809196082      1.43538519512917      1.08345627141333
  C          -2.64176835468700      1.72915171561592      1.35857147951540
  C          -3.23507298850821      1.26556131187561      2.52082035480103
  C          -2.51263693393036      0.50796062618958      3.42526561803225
  C          -1.18596951817441      0.21259571136757      3.16171146706538
  C          -0.59307698675932      0.67125617286415      2.00102831729440
  C          -1.51720057631125      2.57045851285551     -1.20212245412557
  H          -3.22698254647601      2.31752650128268      0.67070102003606
  H          -4.27081047907815      1.50020849609590      2.71817747461477
  H          -2.97903406138774      0.15120901425522      4.33114824326749
  H          -0.60683131527427     -0.37144954927585      3.86090608973149
  H           0.45169387503276      0.44860021847124      1.82515031776649
  H          -0.92226300803182      2.83310032784268     -2.07402868193307
  H          -1.99510862520516      3.46786395786363     -0.82202209328519
  H          -2.27417453209318      1.85321600422505     -1.51278846278385
