77
Coordinates from ORCA-job TSA2R_3R E -108.370247135390
  Ru         -0.05590036519057      0.52142287496768     -0.41809367117267
  H          -0.04939365435765      2.05129845053376     -0.52869471091349
  N           1.39766107458217      0.78503433850191      1.11225985846083
  C           1.06685608934998      1.29043302600388      2.30623531880114
  C           2.68611084824789      0.44641490243669      0.86473456914357
  C           1.98641375125848      1.41524770977112      3.33430010984183
  C           3.65403566822925      0.54053279007889      1.87861472845448
  C           3.30160530921206      1.01342212293536      3.11803179886256
  H           1.68086544948621      1.82281498049132      4.28496657063600
  H           4.66468012206884      0.23410830082439      1.66152321413633
  H           4.03136617014029      1.08984785104462      3.90960732742829
  P          -1.47614718906181      0.84081676939902      1.37190019289009
  C          -2.95260796904422      2.02365149297216      1.23379532371458
  C          -1.94704207314482     -0.64731820289679      2.45900267049972
  P           1.86937231266769      0.54262552327427     -1.69987698211151
  C           2.59585882131525     -0.11661243313227     -3.29740167455206
  C           2.40345684884976      2.30855246243751     -2.11382926366782
  C          -0.33797044247976      1.78496946147668      2.48012173729958
  H          -0.37186896392653      2.82007183270778      2.11906116983404
  H          -0.64507381558322      1.77078107507108      3.52841624750668
  C           2.99904455836913     -0.08398031681117     -0.44353202789406
  H           4.04993873899524     -0.13594753658538     -0.71855008381914
  H           2.56208541212679     -1.34257016520393     -0.26330651272082
  C          -1.32537681354846      0.43812372450839     -1.74860452679048
  O          -2.12996888982331      0.48633331333157     -2.57515438801199
  H           0.11557346032384     -1.25284353767739     -0.32733748162174
  C          -3.30906535710749      2.74632771999134      2.53428917424626
  C          -2.58910443270827      3.08185215569026      0.18992732005731
  C          -4.15438137837482      1.23943722077354      0.70624260176727
  H          -2.50838638838556      3.41012665145021      2.85101125208989
  H          -4.19341203510016      3.35827969555001      2.35910586954320
  H          -3.53623832186164      2.06372780598935      3.34475719733703
  H          -2.41417355288828      2.62300153720349     -0.78125326760167
  H          -3.40697327698336      3.79461270388255      0.09390060542552
  H          -1.69327573964715      3.63307647262967      0.46915888783318
  H          -3.85043884825749      0.60732234897416     -0.12843275463888
  H          -4.60351251331379      0.62172344273127      1.47934883056200
  H          -4.91712652835454      1.92893167246749      0.34722854128176
  C          -0.61014497648369     -1.26050798737923      2.89314032782948
  C          -2.76550142562203     -0.36253528689342      3.71554896050919
  C          -2.69823311309365     -1.63609387802049      1.56394071754418
  H          -0.12554800557382     -0.65446072256675      3.65702304087351
  H          -0.77584564254340     -2.25076045204640      3.31694587301460
  H           0.07845704057467     -1.36697826685320      2.05377171009788
  H          -3.77832667888853     -0.04882021586627      3.47848622831287
  H          -2.83590877292647     -1.28084642971190      4.29879135401824
  H          -2.29437129530890      0.39037201687952      4.34429312596928
  H          -2.63532010112753     -2.64411031049065      1.97067171920509
  H          -3.74992524461572     -1.37833382346463      1.47843946122108
  H          -2.26521742115915     -1.63787044987127      0.56194349754998
  O           2.10033837766412      2.81535504432554     -3.16196447152173
  C           3.16174716287386      3.01664423145920     -1.03068951400721
  H           2.59257182347148      2.97377885643407     -0.10255398844600
  H           4.11330160701745      2.51004469796743     -0.87163981545520
  H           3.33723674463258      4.05307271764932     -1.31097656727196
  O           3.70696887824909     -0.57305564409100     -3.27210019802973
  C           1.75335849858020      0.14466684295763     -4.49026980889035
  H           0.75953078703919     -0.27347214363772     -4.33331689614821
  H           1.64013899615294      1.22987787702458     -4.57546849698386
  H           2.20380126526444     -0.25924784139530     -5.39374933227240
  C           0.71818548184343     -2.37755181875997     -0.52485041740239
  O           1.87080680024861     -2.38369466766033      0.11889282789738
  C           0.79209836857780     -2.53033238890615     -2.03486273416378
  C          -0.33121336249692     -2.37057077952371     -2.83862354065082
  C          -0.27424556767088     -2.66666338513693     -4.18758843855243
  C           0.90500176423929     -3.13356102545856     -4.74912600334576
  C           2.02477627453800     -3.29900028618937     -3.95473025886191
  C           1.96757919330072     -3.00351264331522     -2.60360916486904
  C          -0.22024440063889     -3.47533140339893     -0.00290419889084
  H          -1.25986942843607     -2.02216682035528     -2.40535795332523
  H          -1.15397860815681     -2.53890067083499     -4.80187991815063
  H           0.94478232864206     -3.36988495008583     -5.80236395679506
  H           2.94694203210628     -3.66287182928073     -4.38230116556480
  H           2.83027087840585     -3.15237339397954     -1.97083720565491
  H          -0.29880274684805     -3.42699112637299      1.07859746336415
  H           0.23332414547249     -4.42969465482434     -0.26737814843164
  H          -1.20600774338401     -3.41926722612068     -0.45481788585780
