18
Coordinates from ORCA-job NEB_reactant E -40.036701380510
  C           1.57732921972311      0.06034002349110     -0.08640765991368
  C           0.94726977139803      0.24451131910248      1.08394897032416
  C           1.94148294627696     -1.30374797655740     -0.50669274590603
  H           1.83612909198298      0.88580459282091     -0.72641682130335
  I           0.42593308843590      2.21374035305629      1.67755322629271
  C           0.27475322404796     -2.55389380017613      4.64265796396152
  C          -0.31036908393302     -2.08678963985050      3.54589756760511
  C          -0.10420470740428     -0.69789503703971      3.04459499753722
  O           0.67528314640498     -0.79031135038385      1.85194814694291
  O           0.14993263540422     -3.79342365637947      5.13758447812567
  H           0.90623253102673     -1.93984014546582      5.27008625457181
  H          -0.92487950298501     -2.72459697959409      2.92612177760892
  H           0.43209556937968     -0.09155311104404      3.78361816723143
  H          -1.06386702815462     -0.22146989148935      2.80617939104227
  Br          2.77551776983787     -1.30863837982694     -2.25862974163007
  Br          3.19674905429056     -2.15704118925610      0.77207879049070
  Br          0.36792855657012     -2.49230116738342     -0.58818674977170
  H          -0.39331628230218     -4.33899396402394      4.55286398679038
