22
Coordinates from ORCA-job NEB_product E -40.679256889580
  C           2.22408188789156      1.64633876586069     -1.37361062859930
  C           0.88393579055427      1.49911412824414     -2.11118951145966
  N           2.07734817824885      1.07474034743737     -0.03978004786303
  H           3.02012440888824      1.09862280884177     -1.88600515242323
  C           0.82698197231100      0.37911563091620     -3.11222462370222
  C           2.61017990813293      3.13185280277151     -1.22364032512279
  C           3.59239091513011      3.31202105985706     -0.09960158632368
  C           3.40925314614663      4.15752050798683      0.89526953445018
  O          -0.06853938574650      2.17023869300233     -1.80012676757596
  C           3.19578545522170      3.68729844920791     -2.51852870187576
  H           1.69579124354361      3.69837293276613     -1.00956364454721
  H           4.47292938330498      2.69046880076581     -0.15333225028609
  H           2.53188632412219      4.77983423824373      0.96195179719429
  H           4.13111455526857      4.26319918726790      1.68592284166587
  H           1.34511462093508      1.56289021330915      0.46617988726400
  H           1.82209851261111      0.09515916899421     -0.09771516857026
  H           1.52656203543526      0.58258431360759     -3.92009000260339
  H          -0.17750890228605      0.28122348505470     -3.51474955173357
  H           1.12610790766952     -0.55422980998133     -2.63838197185006
  Cl          2.05508581781002      3.50458683323179     -3.87358460454024
  Cl          3.55046140429518      5.41943330271288     -2.32985545132029
  Cl          4.70521482051171      2.86371413990163     -2.96444407017758
