21
Coordinates from ORCA-job NEB_reactant E -28.808248652310
  C           2.07931913200655     -0.04044422013000     -0.06074729068369
  C           1.69407038524078     -0.98063110291418     -0.92891030881744
  N           2.05514256342805      1.33657868814994     -0.34051890792384
  H           2.50677251462680     -0.31443034392492      0.89075155508704
  N           1.88671554468713     -2.36241807405342     -0.72794009887433
  C           2.39957546798956     -2.34900135021901     -4.85909473825828
  C           2.60422158193036     -1.80107263952071     -3.67298268763638
  C           2.00480795322830     -0.50116385445107     -3.23185328359502
  O           1.10287674889096     -0.64939005826424     -2.13293916834076
  C           2.98724060884789     -3.64564854986745     -5.30575160203844
  H           1.77909194210465     -1.84307295814529     -5.58881578363245
  H           3.21195809989053     -2.30034136774075     -2.93067121998186
  H           1.39971974232346     -0.06195422978099     -4.02954516374052
  H           2.80338653968690      0.20024493082971     -2.95008492164239
  H           1.77660922568497      1.89404475223023      0.45638839194814
  H           1.46322536253031      1.53265264172587     -1.13923188369266
  H           1.18526909342358     -2.90501265776583     -1.21565820928940
  H           1.93912904108018     -2.61584049881291      0.24877793950874
  H           2.19571200295752     -4.34091314946708     -5.58464530118573
  H           3.58826262134343     -4.09268359628535     -4.51816613223222
  H           3.61389382809812     -3.49230236159254     -6.18416118497853
