21
Coordinates from ORCA-job NEB_product E -28.840082091970
  C           2.12082386275243     -1.21218837058252     -1.67949493553119
  C           0.86445910406608     -1.98197384376050     -1.25718386232203
  N           2.00818781526427      0.19963803832546     -1.35373418110998
  H           2.99979007207990     -1.60992872420850     -1.15858017647188
  N           1.08283259180901     -3.21553976725869     -0.74430870446415
  C           2.31718932171741     -1.35761449872938     -3.20514653634049
  C           3.46109130658856     -0.49083974900802     -3.63899744734482
  C           3.36889381487087      0.47250325058104     -4.53451554370703
  O          -0.24611594965672     -1.50678464374118     -1.35217446819072
  C           2.58474546220986     -2.81058176464639     -3.60268101512590
  H           1.39921560251303     -1.01558537387463     -3.69353959025277
  H           4.40855945064353     -0.71306050018700     -3.16685757967995
  H           2.43439091919612      0.71340294825865     -5.01407323632643
  H           4.21950152266093      1.06490673411695     -4.82530989766784
  H           1.88311771623319      0.31773771671686     -0.35315214134340
  H           1.17597932595796      0.57208611168014     -1.80236826462784
  H           0.29194184439267     -3.77578496015876     -0.46959190766311
  H           1.99953115100537     -3.62183557134150     -0.69920837415215
  H           1.73494594672675     -3.44407514553259     -3.35917792362459
  H           3.46856553191673     -3.19144376832147     -3.09350965702914
  H           2.75885358705203     -2.86943811832796     -4.67459455702459
