18
Coordinates from ORCA-job NEB E -41.690203342990
  C          -0.23173419178000     -1.37756813143516     -0.29862779963614
  C          -1.57371762237562     -0.98558797396486     -0.46955324824674
  O           0.08801185439866     -1.88743241252670      0.91395490833771
  H           0.26732137780752     -1.81884543459188     -1.15887848386199
  Br         -2.06423133589812     -0.72452711855615     -2.35653481198101
  C           0.49048595008396      0.49423601952209     -0.28245857994896
  C          -0.23445107007890      1.05634556095499      0.77428145095132
  C          -1.61533331947478      1.25475021105651      0.60803783883803
  O          -2.22682575849532     -0.34583456738605      0.37960299722956
  C           1.98495857462060      0.38459659179292     -0.17898669198201
  H           0.19708813450793      0.76325940891029     -1.29423901345996
  H           0.16186414441033      0.97426345233625      1.77491915744287
  H          -1.96166969862834      1.65980685360776     -0.33711215376498
  H          -2.18767501823393      1.58171370699779      1.46372596951393
  H           1.00851561057400     -2.17833786232801      0.93661774516398
  Cl          2.67926360394945      2.01958823571292     -0.45763677696075
  Cl          2.55244792367624     -0.17528611014799      1.40841025963415
  Cl          2.66568084093631     -0.69514042995474     -1.42552276726900
