18
Coordinates from ORCA-job NEB E -29.993889988550
  C           0.74747950172051      0.32207975703511     -0.10919859874534
  C          -0.57128410893534      0.36289208707856      0.31852837729619
  Cl          0.87423307322222      0.81442670582524     -2.17981672036657
  H           1.34438269411560      1.11800388611431      0.32506841320878
  O          -1.17629904227328      1.41530333270641      0.90479410959228
  C           1.45407456594904     -1.04861212610231     -0.15531863108909
  C           0.46647612676474     -2.14461287320723      0.03234651382724
  C          -0.99236443619267     -1.93228861653195     -0.01359154650528
  O          -1.45588805345572     -0.62697376984230      0.12599322623827
  H           2.04146347830939     -1.18875818381864     -1.05749450004426
  H           2.17155389493606     -1.04727878667939      0.67838732244782
  H           0.76114683211767     -3.08110193638750     -0.42446612272873
  H          -1.43200723679201     -2.50438070630348      0.81709019640271
  H          -1.40226106882637     -2.31664839522185     -0.95512359217376
  C          -0.77734130237027      2.71011507473096      0.49315906170884
  H          -1.47163085683509      3.39993656249817      0.96480310527457
  H          -0.81763726592266      2.80541883430874     -0.59467328711147
  H           0.23590320446819      2.94247915379718      0.82951267276780
