18
Coordinates from ORCA-job NEB_product E -30.092692988230
  C           3.37709170295525     -0.45166804348320      0.64444365777739
  C           2.19976012906104      0.18069434119717      1.37409636879820
  Cl          2.84657416631886     -0.95753479890002     -0.97529105111258
  H           4.16687101333945      0.29164406707562      0.51139992366112
  O           2.64036443508302      0.80239678118501      2.47195298681145
  C           3.89492473011192     -1.64813884240164      1.45248360674512
  C           2.78320096300977     -2.59352719697881      1.79263745940366
  C           2.40497588883271     -2.87391526650604      3.02456494478622
  O           1.05079941636595      0.12476814740581      1.04496267711035
  H           4.65429874080484     -2.16322912073567      0.85917273319334
  H           4.35705739120560     -1.26493102771269      2.36472156947053
  H           2.27693489052650     -3.03347015541103      0.94494582165296
  H           2.89509403248905     -2.44022804902604      3.88188705662498
  H           1.59633189316105     -3.55336758194292      3.23077189110331
  C           1.63840775395263      1.39293574544319      3.29305070873550
  H           2.16049508773665      1.82973081593498      4.14005046578050
  H           0.92926390925579      0.63284226291545      3.62566839172905
  H           1.09755385578994      2.16049792194082      2.73668078772889
