18
Coordinates from ORCA-job NEB_reactant E -30.054832865170
  C           2.00478506762806     -0.17829228505373      0.04174539467031
  C           1.93243409804792      0.10705660124875      1.34701379732546
  Cl          1.99127299575842     -1.73973531863815     -0.69902416618817
  H           2.05804459653312      0.63642054341811     -0.65777232547877
  O           1.90728424789114      1.43486343538234      1.64671648987085
  C           4.52846176876284     -2.90895196776416      2.95674529155581
  C           3.73480484387551     -2.19381980132952      2.18324968777350
  C           2.26183837928042     -2.03899268368993      2.41343540091364
  O           1.85220657777241     -0.67602184579857      2.44108696608100
  H           5.57955372957423     -3.01169271898265      2.74972282714328
  H           4.15671525740708     -3.43350690247029      3.82175990757587
  H           4.12142756954590     -1.67186872188518      1.31914579645211
  H           1.98436904932715     -2.41583873181540      3.40124398628957
  H           1.70045632305525     -2.59127474034575      1.65205169837621
  C           1.86386939865781      1.79335696218683      3.01592381436517
  H           1.87824238409128      2.88113799551178      3.02403229960109
  H           2.72990261151239      1.40449500629157      3.55700004213243
  H           0.95103110127906      1.42836517373393      3.49212309154064
