20
Coordinates from ORCA-job NEB_reactant E -47.188464722960
  C           2.16759108538437      0.76421022632499     -0.17894685537401
  C           1.49769491930859      0.47320750910038     -1.32974029662083
  N           1.89300414160655      1.78358513840148      0.73997092858174
  H           3.02541666108625      0.16811774902660      0.09467879349664
  O           1.76462127073360     -0.65618382493591     -1.99709842598923
  C           2.08284583886280      4.28748132038297     -1.02644335470729
  C           1.80303299018129      3.27247496176147     -1.82988178508660
  C           0.47605692581212      2.58124150821661     -1.85123274042302
  O           0.60619429747821      1.17244193696055     -2.00860091249058
  C           3.36609031557583      5.02024544415653     -0.97266821515274
  H           1.33592822566307      4.66816618947084     -0.33967969850556
  H           2.53782299725764      2.87517229132754     -2.51944719558471
  H          -0.09351197955813      2.88750126343510     -2.73497609080391
  H          -0.09868158577289      2.81287326785254     -0.94615916799282
  O           2.81702530186922      2.17170247417793      1.43083916916384
  O           0.75024909274092      2.21245093480473      0.82771232458234
  H           2.32700937354978     -1.25772740543905     -1.49214824611488
  Br          3.10784177732428      6.79864773584488     -1.80971837688358
  Br          3.92021154104047      5.29109801712291      0.88847112360746
  Br          4.82175680985601      4.14329326200689     -1.90933097770225
