20
Coordinates from ORCA-job NEB_product E -47.201685048000
  C           2.56540178711602      1.81856261460861     -0.87591747101693
  C           1.77031366333758      0.77730465368836     -1.77654216223890
  N           2.41409491204392      1.43279555637118      0.53644631279983
  H           3.61952943453693      1.64190668658222     -1.13707033067112
  O           1.92912049699587     -0.47512753778569     -1.44614998290963
  C           2.14735334692154      3.25224753495484     -1.24511789889596
  C           0.92249922559533      3.75089527902721     -0.51011530437520
  C          -0.30151840708351      3.52417419895112     -0.94722002966336
  O           1.13014028602168      1.16241568838151     -2.70388468713726
  C           3.29399392061555      4.24797319169460     -1.11325939157962
  H           1.88785899221436      3.20569534277657     -2.31440037974583
  H           1.09555034906412      4.31229630168068      0.39643968460816
  H          -0.49227035028936      2.96031125074563     -1.84548703969351
  H          -1.15821188513168      3.88968492828606     -0.41028319803789
  O           2.85531739899008      0.32345332098430      0.79930808926167
  O           1.86584497926835      2.15674563285828      1.31417949703963
  H           2.43442721330186     -0.60933963419221     -0.60483531261698
  Br          2.67859030191528      6.02018267817618     -1.65393885366928
  Br          3.99752173445578      4.36128174363911      0.70879210390979
  Br          4.78574260011033      3.75454056857142     -2.30334364536761
