24
Coordinates from ORCA-job NEB E -35.937792975870
  C           0.42330243050759      0.05953390874181      0.01814830619470
  C          -0.77191008333883     -0.34298336549644     -0.82718753772866
  C           0.32936954398276     -0.65453720617951      1.38273335578846
  H           1.33944322803579     -0.27877713144830     -0.47988695268928
  O          -0.70794507080055     -1.62617645872204     -1.31317829941225
  C           0.45855304126782      1.58476143142273      0.13253213175844
  C          -0.63286487747650      2.18565481296954      0.94180649262798
  C          -1.36787613868179      3.19764479473952      0.51821087831209
  O          -1.73206585893627      0.34372556878998     -1.01392747484445
  Br          2.20146334437497      2.10726082536107      0.94063538178439
  H           0.48289054142264      2.03313576981212     -0.86364743714252
  H          -0.77672448010019      1.76975416667104      1.92840630846127
  H          -1.22942458539107      3.62953985943623     -0.45920867477481
  H          -2.14682902277301      3.62313517414861      1.12562677644449
  C           0.77898039761873     -2.10785469704891      1.31743776630634
  H          -0.69926626781510     -0.60620803743560      1.74641883531591
  H           0.96873459391617     -0.12047532810866      2.09010225088866
  H           0.15404674611669     -2.67694388867090      0.63474082203189
  H           0.70930222289481     -2.55765693187845      2.30482908797888
  H           1.81340185902369     -2.17419721975385      0.98575595844766
  C          -0.02539475608815     -1.79918754417208     -2.54142398122049
  H          -0.09805304319255     -2.85924206682226     -2.77438081542839
  H           1.02900379264050     -1.51462083406340     -2.45900116554114
  H          -0.50013755720814     -1.21528560229222     -3.33554201355917
