24
Coordinates from ORCA-job NEB_product E -35.958732177390
  C           2.91831524808950      1.05939330378944     -0.41646773730397
  C           1.83807361253873      1.09587222388209     -1.49142000695909
  C           2.33585606166806      0.39399770177742      0.83581415092699
  H           3.75775500621655      0.47279934129903     -0.80364682325606
  O           2.36823933021783      0.91335236266134     -2.70383595155067
  C           3.37075476382136      2.52119139851431     -0.26971994234858
  C           2.44552162365988      3.37458313544327      0.52215611654663
  C           1.78050290056159      4.39021193645531      0.00369450873317
  O           0.67023980460851      1.29296338616380     -1.29339727483005
  Br          5.18184292518538      2.61737395492657      0.53321087685366
  H           3.52143670463390      2.94338811963172     -1.26747047340584
  H           2.35102513625853      3.12831788256385      1.56983864318680
  H           1.86979759519926      4.65982295379593     -1.03632694510558
  H           1.11050922357404      4.98792926390469      0.59608406393312
  C           3.32298552583457      0.22995755278927      1.98408156433899
  H           1.98278421332396     -0.59520680194020      0.53239920878445
  H           1.46043494948203      0.95922890672356      1.16009661354148
  H           4.23663053860650     -0.25134259741938      1.64210667035462
  H           2.87906796491412     -0.39107787533643      2.75861700882836
  H           3.58696279471737      1.18335311600344      2.43236105669399
  C           1.46428244724780      0.96117113611521     -3.80164606685479
  H           2.06306012614231      0.80615474123499     -4.69500577102782
  H           0.96200463555835      1.92981872731982     -3.83603956284284
  H           0.71011686793988      0.17854612970095     -3.70248392723697
