24
Coordinates from ORCA-job NEB_reactant E -35.920443618280
  C           2.06562097981520     -0.11252878016178     -0.07788255639227
  C           2.03990999559161      0.82642131501445     -1.01873729928556
  C           1.50874002298142      0.03955160473831      1.30203764708507
  H           2.54012588608953     -1.04984304838128     -0.32104176978933
  O           2.64163783161266      0.59773706332833     -2.22738514568490
  C           3.59917727101852      4.62130617622963     -1.60239777207611
  C           3.43056530540616      3.42144143260520     -1.07796880138098
  C           2.23370066324172      3.05526982091513     -0.25079801265276
  O           1.43113394835303      2.05145347292623     -0.86088479205925
  Br          5.10371199288010      5.07758676144104     -2.65380364951460
  H           2.91229640297667      5.44201807341911     -1.46677669039281
  H           4.14590852311730      2.62898769303911     -1.25295492209946
  H           1.56590648310248      3.91117744286634     -0.12607306913895
  H           2.57433874565983      2.71173486187125      0.73587720502182
  C           2.60993802194507     -0.01134557838065      2.36246673174833
  H           0.80757623638218     -0.77855486282763      1.48760163641732
  H           0.95493681463163      0.97664824008022      1.37686505136752
  H           3.14489141466683     -0.95634990933366      2.30559480635790
  H           2.18249290131667      0.08512012788685      3.35783130725775
  H           3.32758563410199      0.79352581311074      2.21553170917964
  C           2.10290587149297      1.27544068182517     -3.34582918229326
  H           2.65635845507064      0.90484906166914     -4.20608872664271
  H           2.23276261417738      2.35854719927681     -3.26519117969394
  H           1.03897798436839      1.05270533684196     -3.46309252533846
