17
Coordinates from ORCA-job NEB E -33.787298501320
  C          -1.68085828028264     -2.15290621556189      0.56523919383101
  C          -1.01085339613527     -1.53962865319583      1.53377554344616
  Cl         -1.38681824322559     -1.85329107813506     -1.09971849421660
  H          -2.45350823592350     -2.87492365690066      0.77118206669148
  Br         -1.52867718381796     -1.96572119157211      3.34843779213299
  C           0.96601258052773      0.52237523994900     -0.87786120013032
  C           0.31427040488362      1.25556881220382      0.00830374232303
  C          -0.36720217460127      0.70398961463050      1.22281495537160
  O          -0.01738965740759     -0.66667200665844      1.43570642525902
  C           1.62851002508363      1.08491223003244     -2.09103141506283
  H           1.09314321781990     -0.53825515703171     -0.72152007006322
  H           0.21134362804086      2.32627853197318     -0.10355581588870
  H          -1.45448957538754      0.80106762318407      1.10239131782831
  H          -0.06642355292939      1.27031086977968      2.11327507069982
  F           2.99339799844822      0.90157070150846     -2.01960516815745
  H           1.45852300115941      2.16179587974739     -2.18922163192095
  H           1.30101944374736      0.56352845604714     -2.99861231214333
