17
Coordinates from ORCA-job NEB_product E -33.808550763680
  C           1.93702404327732      1.04859334793721     -2.07025365490147
  C           0.65383969880773      0.55699469726775     -2.67096735652658
  Cl          1.62982550715259      1.12447858143623     -0.30145194216074
  H           2.75641584846467      0.34352694732594     -2.22363204284531
  Br          0.87619654872934     -1.17507572964961     -3.57261155976873
  C           2.29661230043459      2.44599412252689     -2.59587195746878
  C           3.50703266831650      2.97050629128987     -1.87643944925373
  C           3.51710777541238      4.08969520731963     -1.17983227519161
  O          -0.40522743198015      1.07209519776642     -2.66916043780234
  C           2.57092420286205      2.36312713362585     -4.10461911381848
  H           1.44908566832105      3.11931136124158     -2.43199125766488
  H           4.39804073334049      2.36540524930067     -1.97572980817205
  H           2.63797444838637      4.70364307327641     -1.07711335803625
  H           4.40691468677091      4.44129685913249     -0.68796583787807
  F           2.81232415776585      3.61566528860852     -4.59461923266732
  H           1.70778484774461      1.97088588322309     -4.65417270923296
  H           3.45942429619370      1.75895648837107     -4.31906800661069
