26
Coordinates from ORCA-job NEB_product E -56.227828734060
  C           1.26519802470110     -1.59358341047048      1.12379170519300
  C           1.84324166524309     -0.38626237829136      1.84330196856117
  C           2.13446932108875     -2.08378249699576     -0.03112453036811
  H           0.37175311011147     -1.17970762709433      0.63332752895378
  C           3.27387752578242     -0.43626816804249      2.47202828997915
  C           0.70014855455310     -2.57447042919183      2.21517522794408
  C          -0.70227462635754     -2.95351479922894      1.82151108166263
  C          -1.74685714158953     -2.80549347861240      2.61317332284612
  O           1.21059144477643      0.61513418352216      2.01145271455374
  C           1.50581599874265     -3.82842965237634      2.60962321391735
  H           0.62997203423110     -1.96375595888392      3.12489283437765
  H          -0.81172942350981     -3.37380436294735      0.83295181055266
  H          -1.65800644872707     -2.38494000468759      3.60155735805650
  H          -2.73534734957446     -3.10292764113222      2.30910774034125
  Cl          1.17418412399754     -3.10321521050861     -1.12713605232086
  Cl          2.61105343984910     -0.61618915457637     -0.97551268128952
  Cl          3.61631108168326     -2.94310193230232      0.39603294287110
  F           3.40050909950495      0.55413484520739      3.35535792758422
  F           3.53628167758829     -1.57173601333582      3.12759775439846
  F           4.23465993821654     -0.27272162697991      1.55754670421294
  C           1.30668713338184     -5.05635615301992      1.72819030407187
  H           1.17212751050184     -4.08933373437421      3.61667813435615
  H           2.56474604095494     -3.59595698786481      2.67705888305036
  H           0.26643554041541     -5.37035519017029      1.73266491827293
  H           1.90796958307885     -5.87160110781822      2.12332029046409
  H           1.61278214135573     -4.87976150982406      0.70393060775730
