26
Coordinates from ORCA-job NEB_reactant E -56.239993359110
  C           1.54878048019708     -1.08060116692652      0.16848980849591
  C           1.83035268040863     -0.55251357638545      1.36708044109883
  C           2.27419677803580     -0.91817402900396     -1.11580258722894
  H           0.66265532335434     -1.69032634262033      0.08024549124514
  C           3.02560398833815      0.34290687632911      1.68503613147317
  C           0.09613515391060     -3.85796296909522      3.52832908960962
  C           0.37713172199205     -3.03382560265793      2.53187493594243
  C          -0.00357985517653     -1.58296491899389      2.53641138834225
  O           1.13693707999042     -0.72255776720945      2.49692697211489
  C           0.43879487632565     -5.31093552227114      3.60355078807311
  H          -0.44726302552803     -3.48312446495054      4.38755723535290
  H           0.92637750193756     -3.37259934552716      1.66753935668492
  H          -0.49459755233723     -1.31962539252700      3.47567368751196
  H          -0.67571343831398     -1.34102899835909      1.70319524000001
  Cl          1.70387413030115     -2.16651158678032     -2.25200032925828
  Cl          1.92114899979332      0.67817167481730     -1.85859583102220
  Cl          4.03770072546469     -1.10333932295991     -0.96421349587943
  F           2.78955492268097      1.08429033641923      2.76951253923746
  F           4.12606223328353     -0.37689350508204      1.94637367912261
  F           3.33435418854764      1.19608846111394      0.70689341121016
  C           1.20834617563117     -5.85937117119795      2.40971993865868
  H          -0.49335258725762     -5.87148667298084      3.72690068678235
  H           1.02104101020606     -5.46945470168852      4.51655966542159
  H           0.63002700839233     -5.75224022263587      1.49530180215894
  H           1.41692334540853     -6.91590576860561      2.55892625682097
  H           2.15520813441370     -5.33881430022082      2.29021369803095
