19
Coordinates from ORCA-job P E -24.670562750970
  C          -1.33424803040762      0.45784388918317     -2.26943482506371
  C          -0.14535107779192     -1.65317357331179     -1.01953884871123
  C          -1.49426086635578     -1.85157574984040     -1.63185827720880
  C          -2.06720885221614     -0.84147129097579     -2.26766364721366
  C          -0.89612494261096      0.79333714730833     -0.84550792328594
  C          -0.04770160317336     -0.33385729094463     -0.22301440152306
  H          -1.96063286401045     -2.82179432459193     -1.56646780599925
  H          -3.03059512092511     -0.90966798492654     -2.74563809545445
  Br         -2.45014934605242      1.91651838284244     -2.97813897693102
  H           0.11579137074184     -2.48983958948198     -0.37150644623786
  H          -0.46805048090823      0.41934442105623     -2.93773410566632
  H           0.59450392124276     -1.62101756236699     -1.82725805017720
  H          -1.79763962176125      0.94828633524163     -0.24845739740625
  H          -0.43255577281300     -0.52468131186989      0.78346046950522
  H          -0.33408497201992      1.72903692121051     -0.84348710276199
  C           1.41621688136741      0.08406350017602     -0.10083179198255
  H           1.82589348840129      0.33633035476204     -1.07709640041615
  H           2.00813690801075     -0.72601160407875      0.31974400236832
  H           1.51483098128213      0.95084933060829      0.54875962416589
