19
Coordinates from ORCA-job TS E -24.563083396680
  C          -0.96266461024399      0.58909362792098     -1.55365648757476
  C           0.35463323562309     -1.53511156915399     -0.20686963742040
  C          -0.96185206936464     -1.59440086741724     -0.53173839861006
  C          -1.61654812887160     -0.55449508838569     -1.22407403306261
  C          -0.36888231683362      1.25897366034690      0.56708117339595
  C           0.40904287440951      0.30913416054486      1.14673389639256
  H          -1.58706365050317     -2.35989981929284     -0.09370317602844
  H          -2.69450704137138     -0.58668839822102     -1.29431027808894
  Br         -1.90563599731388      2.05380909910268     -2.30591371957616
  H           0.78830988650683     -2.30065006898921      0.41571901272581
  H           0.09101233584569      0.64169770112870     -1.76013496409450
  H           1.05254836782688     -0.97305367140870     -0.79862212540524
  H          -1.41411669785518      1.33938063974197      0.80878227950192
  H          -0.02493012869517     -0.35019121830754      1.88388459294657
  H           0.08086691385155      2.12010883656141      0.10148975014095
  C           1.90336094424497      0.44795993382416      1.19114660739966
  H           2.27986537128925      0.94676358771858      0.30061034832474
  H           2.40142030016614     -0.51185480861789      1.29991431454270
  H           2.17514041128873      1.05942426290390      2.05366084449025
