21
Coordinates from ORCA-job TS E -30.493841714840
  C          -1.18173883861081      0.87506558098286     -1.71397142179346
  C           0.00652241989065     -1.49594748472206     -0.61534681330071
  C          -1.31565755631942     -1.39012998814533     -0.87309009426107
  C          -1.90377685721109     -0.24948436991604     -1.46921772382946
  C          -0.64352238667455      1.41695159831575      0.35745282900260
  C           0.07225557913408      0.40363772601558      0.92242981362540
  H          -1.99405905952777     -2.13871566940294     -0.48634469329805
  H          -2.98199553388872     -0.22107636057455     -1.53951134695993
  I          -2.12104840609601      2.58403231745664     -2.52113990453111
  H           0.38606395300719     -2.33983202754031     -0.06334438832888
  H          -0.12413943636559      0.86572134784364     -1.90874688717442
  H           0.74226552148869     -0.91201923004774     -1.13610053206447
  H          -1.66406462396039      1.59850307296190      0.65060982917075
  H          -0.38486448907325     -0.27761802914442      1.62261393883464
  H          -0.10122869477627      2.24880975218707     -0.06280991292568
  C           1.53755222917746      0.39038486000221      0.79879520700969
  O           2.12351827092271      1.03078258853777     -0.04926742575625
  C           2.25919280987606     -0.44833299465964      1.82596199202407
  H           1.86299329848929     -1.46044249801445      1.84012777138420
  H           2.10176811259202     -0.01042362673127      2.81036721750858
  H           3.32396368792571     -0.46986656540465      1.61053254566358
