24
Coordinates from ORCA-job NEB_product E -35.686104411910
  C           2.94023834190236      0.94201644699139     -0.45531338229159
  C           1.86287362132421      0.80056660416232     -1.52588180853362
  C           2.39432476198911      0.34720757110580      0.84809206265933
  H           3.81607507549153      0.37895914040274     -0.79213093176644
  O           2.40458315831032      0.48880864096206     -2.70624677209419
  C           3.27510921109976      2.43984471587573     -0.45482751042496
  C           2.30077551222876      3.28937667354865      0.27263998282781
  C           1.60763216774775      4.25174154751444     -0.30885066033257
  O           0.68715150414733      0.97371814112907     -1.35289401011794
  I           5.28738903037264      2.82407271067886      0.33392680586821
  H           3.36613346152813      2.77411863683894     -1.49041524471027
  H           2.18652305708628      3.09232069670395      1.32872259426633
  H           1.71057361362040      4.47481249160377     -1.35863427209106
  H           0.90062012952047      4.84946343571097      0.23902580601002
  C           3.37126017219008      0.35473237409785      2.01590360279117
  H           2.11940013156042     -0.68846068939702      0.62967702699786
  H           1.47449518557214      0.87034217825929      1.11523455267441
  H           4.32188999042683     -0.08920461195638      1.72820617496872
  H           2.95901609400717     -0.22704369726729      2.83722605682135
  H           3.55747542591882      1.36010180465814      2.38274252111258
  C           1.50425394333366      0.36298666531868     -3.80085421702008
  H           2.11176265869644      0.11400453319026     -4.66666909654587
  H           0.96993412785501      1.30147114817984     -3.96057649902546
  H           0.77650962407035     -0.42535715831206     -3.60080278204373
