19
Coordinates from ORCA-job NEB E -25.317611971720
  C           0.58579337630705      0.00920388907425     -0.78729355014428
  C          -0.73198537078805     -0.63648149548552     -0.69972891887448
  H           1.37975852963899     -0.71330791070636     -0.56175849723133
  H           0.75758865218194      0.44599030453234     -1.76895972558338
  C          -1.67949493873447     -0.67241900496001     -1.84354102388455
  C           0.61051047124433      1.08918123282597      0.35131346831022
  C          -0.21862804263507      0.49564359439332      1.42936340761054
  C          -0.38131793883399     -0.99606263918715      1.49208108738623
  O          -0.98638620868112     -1.48239087004646      0.32070793076689
  N           1.89880136067577      1.54475038380053      0.83567022088840
  H           0.12318226645411      1.97749811963678     -0.06684036644556
  H          -0.03688033652960      0.93719742177436      2.40377712838357
  H          -1.03787641938471     -1.29390857012263      2.31237041475264
  H           0.59471957553616     -1.49167229655920      1.64825115577343
  H          -1.22760373547150     -1.13356306486156     -2.72530375721195
  H          -1.96796261390026      0.34304718782902     -2.11737121578596
  H          -2.56778485852118     -1.23314809388378     -1.56736663152959
  H           2.43760166147181      2.02605063078616      0.12659502070117
  H           2.44796456996978      0.78439118115994      1.21803385211799
