20
Coordinates from ORCA-job NEB_reactant E -36.917980535310
  C           1.75315702678452      0.18280269367075      0.08966680351145
  C           1.21586166503267     -1.04593455515530      0.04728412518162
  C           2.27548017712925      0.90639678166450     -1.09796739128281
  H           1.80954303248229      0.67983190941439      1.04669003256332
  C           0.74710980557313     -1.64256156883077      1.24438304857654
  C           0.31205935960526     -4.85760833716586     -2.74993958228038
  C           0.45956996246782     -3.57434194597669     -2.44502416271787
  C           0.53897598446262     -3.02671951504495     -1.06387496709854
  O           1.10842945572573     -1.73990438220298     -1.13295323250809
  N           0.22232929492831     -5.28612758204256     -4.11595146604836
  H           0.24639238469588     -5.66663001308438     -2.03859489566608
  H           0.52314292272831     -2.84466106309786     -3.24366991343590
  H           1.13094154528417     -3.68702258986844     -0.41309358073448
  H          -0.47899031159128     -2.97544716394044     -0.64148545498504
  H           2.17713720534133      0.29792280561967     -1.99182903764841
  H           3.32444304227013      1.16087771348400     -0.94797390716521
  H           1.72993979956638      1.83988774870942     -1.23523168619728
  N           0.36212318387498     -2.12598598464855      2.21126287345826
  O           0.26920421259083     -4.44621343563714     -4.98713902150955
  O           0.10585025104766     -6.47776151586681     -4.30015858401319
