21
Coordinates from ORCA-job NEB_reactant E -41.203753509400
  C           1.99442853307575      0.35435342882442     -0.31734289601401
  C           1.85780306762768     -0.97085007060249     -0.22100695159081
  Br          1.40125159503696      1.34107082689824     -1.80712054489351
  H           2.42890310788898      0.93721777491608      0.47293812625452
  O           2.27998543061870     -1.56085449175664      0.92578576525689
  C           3.71188373065758     -3.76177858990275     -2.71772407531321
  C           3.32799914570868     -2.63023796011740     -2.15172883650779
  C           1.99280439238088     -1.99124224502526     -2.37295240682269
  O           1.28712152801998     -1.78330418351868     -1.14995362135778
  C           5.05156171900806     -4.39374136068349     -2.48822611668106
  H           3.07463376850255     -4.31996496884522     -3.38756006762816
  H           3.99224704686520     -2.10403419567429     -1.47666097615623
  H           1.33438826424961     -2.63486774105445     -2.95871124598251
  H           2.12961311973502     -1.04108974595345     -2.90502200712154
  C           2.03889442063352     -2.94950079678382      1.07517128824046
  H           2.38174249514769     -3.19113304884133      2.07845210222920
  H           2.60194276510694     -3.53351016360114      0.34223738440292
  H           0.97514925194503     -3.17627700722498      0.97708569658627
  F           5.74952164327239     -3.77600262109566     -1.50750674224707
  F           4.90380202738847     -5.68625130568862     -2.09301453512041
  H           5.68162294713036     -4.40160153426906     -3.39473933953349
