24
Coordinates from ORCA-job NEB E -36.644840536600
  C          -0.13638661488411     -1.61857548518543     -0.43565924627546
  C          -0.92440987598580     -0.54447350600431     -0.82858583118461
  N          -0.71524990546860     -2.69506019837980      0.21926013320418
  H           0.75652287521187     -1.84453953519025     -0.99990544969627
  O          -0.32060471661767      0.28649463274246     -1.75746708878044
  C           0.75895718636982     -0.38019856603500      1.25573824836187
  C          -0.01328260881452      0.76658403702390      1.28311361749286
  C          -1.39396314812827      0.65496380427223      1.43465725006169
  O          -1.93024915703329     -0.15320451126983     -0.16879313419808
  O           2.08432319121286     -0.44529313275626      0.98570284469383
  H           0.48213496862399     -1.21257291735991      1.89147483975299
  H           0.36771934524098      1.66268624823639      0.81427786744714
  H          -2.00234719458965      1.54315113314748      1.39124044343573
  H          -1.79282975324039     -0.13609874302764      2.05046721679180
  H          -1.55374813818126     -2.43880389493794      0.72332222541304
  H          -0.07907259817632     -3.26653218956593      0.75517677296545
  C          -1.02773903798310      1.45348769780821     -2.12570352591021
  H          -1.39011135474062      1.34650598708063     -3.15128954474760
  H          -0.34408882246261      2.30233205703517     -2.06813002227927
  H          -1.87438204543356      1.61171026752476     -1.45509957611409
  C           2.64179785433411      0.58722209006576      0.19868633162418
  H           2.71164738325220      1.52239397581235      0.76265617562583
  H           2.05204133459862      0.74464266534248     -0.70789299044301
  H           3.64332083289530      0.25317808362048     -0.06724755724157
