23
Coordinates from ORCA-job NEB E -61.486873291140
  C           0.37304439846897      0.62641218587333      0.69209142779465
  C          -0.96586841906001      0.26681710708803      0.93463273037252
  C           0.68858463837767      2.08171508151730      0.38814809507677
  H           1.09725303230801      0.26023078229326      1.41540819704406
  C          -1.30998098198071     -0.79106432593371      1.96715971544858
  C           0.75758171769020     -0.21866362719355     -0.99813656887318
  C          -0.44243647002877     -0.73325544959220     -1.50130554069726
  C          -1.55285995025600      0.17762932093771     -1.49376677839579
  O          -1.87793122389333      0.43729855305719      0.02496105269008
  C           1.86937558642954     -1.20662225478840     -0.73137879114409
  H           1.14432587850701      0.67725196633332     -1.47389311846762
  H          -0.65311221697398     -1.78314326886777     -1.34927256342588
  H          -2.49548889091321     -0.22079847422105     -1.85478220237724
  H          -1.35031238291879      1.16954813999863     -1.89112796375355
  F           1.97866350282157      2.22975352967770      0.01604222838045
  F          -0.04778536177578      2.60609729664597     -0.61426390060388
  H           0.52658804261350      2.70418593855658      1.28354695224918
  Cl         -0.12019658936088     -0.89668364857433      3.26510198439628
  Cl         -2.89035626916129     -0.37230342346921      2.67339469316089
  Cl         -1.45927373648874     -2.39810468235404      1.19138287112106
  F           1.47692660187828     -2.23174311814839      0.03735435523968
  F           2.33785765952512     -1.73786082056830     -1.87063653222029
  F           2.91540143419162     -0.64669680826807     -0.11066034301541
