23
Coordinates from ORCA-job NEB_product E -61.533128139670
  C           2.76282129976772     -1.48685942544079     -0.99184505082917
  C           1.49094554487009     -2.31144107772571     -0.84724885968953
  C           2.40445825126995      0.00991058098903     -0.88466880564003
  H           3.45016730034882     -1.70422716049264     -0.16836685716367
  C           1.34586384142985     -3.04293770472645      0.50542679791137
  C           3.49505383379868     -1.74723085209001     -2.33418675563715
  C           2.66981283588345     -1.48756676229814     -3.56706940647459
  C           3.02773637527336     -0.61483934161595     -4.48876796929328
  O           0.62226281210011     -2.36748487312229     -1.65990194817937
  C           4.00819578734546     -3.18608978882319     -2.36843520530260
  H           4.38658383531973     -1.10801252309088     -2.35348274845146
  H           1.76569378737087     -2.06928887883620     -3.66047741185609
  H           2.42665067987344     -0.45218458916204     -5.36498347820885
  H           3.92534758764029     -0.02441387414732     -4.40311834921003
  F           3.51752191632638      0.75514173285360     -1.07031276101163
  F           1.52563352421452      0.39412649167354     -1.82532417022155
  H           1.98642288684962      0.26668299094517      0.10068904704669
  Cl          2.77775167622384     -4.00707456187478      0.90827576043715
  Cl          1.14334575455925     -1.75403555567178      1.72778691559645
  Cl         -0.08597282487288     -4.06970445670688      0.49196810463525
  F           3.02986586699932     -4.09624752741382     -2.26853487537108
  F           4.66755240185647     -3.44601750487667     -3.50064885289725
  F           4.86468502555164     -3.43680533834582     -1.36337312018959
