17
Coordinates from ORCA-job NEB_reactant E -38.020920490090
  C           1.73610658765069      0.01816768019177      0.09150533565068
  C           1.08379524881492     -0.87093476997889     -0.66650059686094
  C           2.13023136881959      1.35464361963189     -0.45382344951444
  H           1.99958149348578     -0.21032572216969      1.10646196449135
  Cl          0.64378185419561     -2.40317526647783      0.01180726963731
  C          -0.06924528156898     -1.54065382676378     -5.16024586526498
  C          -0.27730309155415     -0.92815845382206     -4.00881982535472
  C           0.00641837437641     -1.56185289353141     -2.68418862501104
  O           0.76087748369112     -0.62711469381510     -1.92639828840165
  Br         -0.47042850131036     -0.74607664670489     -6.81970886605245
  H           0.31976426201449     -2.54292487186777     -5.25116728946477
  H          -0.65585655023114      0.08229765738815     -3.96430793721599
  H           0.56641087180122     -2.49749964481446     -2.80214792451486
  H          -0.93940992561439     -1.77838351562804     -2.16699525791496
  F           2.98586670062282      1.24110841921982     -1.50450447218757
  F           1.05897739044646      2.04140707393087     -0.93212409671358
  H           2.61803171435991      1.98777585521142      0.30225792469261
