17
Coordinates from ORCA-job NEB_product E -38.035421471570
  C           1.73026637568621     -0.52106190396711     -1.64186782571406
  C           1.17764708215200     -1.26099443159855     -0.44161260315279
  C           1.44665325172727      0.98381421189106     -1.47487031402400
  H           2.82083843949916     -0.63877047334580     -1.63557616579134
  Cl          1.88043235893457     -0.68992967128449      1.06743988966786
  C           1.15229688053611     -1.13651226461652     -2.93093529136208
  C          -0.17858839214922     -0.60143909409119     -3.33823074643241
  C          -1.28102333455424     -1.32510931804836     -3.28598882852156
  O           0.38950681522344     -2.14172680719512     -0.44316682680752
  Br          2.44890572058793     -0.87290708137547     -4.40226447292824
  H           1.10152962876767     -2.22000450748004     -2.79695643223997
  H          -0.19286751827433      0.41781721685677     -3.69729523967330
  H          -1.27788768079945     -2.34310399327993     -2.93292173905652
  H          -2.23197555620953     -0.91718358997069     -3.57902664650117
  F           1.73540735551820      1.66420253124062     -2.59871969171334
  F           0.13871896889960      1.20846481560156     -1.21444187846265
  H           2.03143960445459      1.42154436066325     -0.65156518728694
