31
Coordinates from ORCA-job P E -45.881609653850
  C          -1.42100683963672      0.40871401803836     -2.33828066741743
  C          -0.33610978434925     -1.76583853078054     -1.09428985684816
  C          -1.69476408011574     -1.89621193058631     -1.70222999103204
  C          -2.21773979219565     -0.86255527249130     -2.34086946467701
  C          -1.01096773543326      0.68628392352471     -0.88167276488436
  C          -0.17430533740848     -0.46069115688493     -0.28099846457569
  H          -2.20653964370488     -2.84274810835510     -1.63152334980611
  H          -3.18514828032008     -0.88315534038003     -2.81304166324005
  C          -2.18939863652007      1.56836078649008     -2.94816742517622
  H          -0.12437612325164     -2.62298471737631     -0.45731422699083
  H          -0.51330805056107      0.27814463215167     -2.93960536126712
  H           0.39224930264932     -1.76838142985710     -1.90994334192275
  H          -1.92582945830185      0.80756669931529     -0.30035171218230
  H          -0.57908793555664     -0.66319006000437      0.71613073215567
  H          -0.46580420858608      1.62576545468389     -0.83498180022293
  C           1.31660036557083     -0.08030692090409     -0.06706717848359
  Cl         -3.69166041220499      1.90108078416224     -2.06196022471489
  Cl         -1.20840362976611      3.05476627875933     -2.95573033760410
  Cl         -2.61488548260215      1.20284239316031     -4.64175491982243
  C           1.40944854704027      1.00993598293748      1.00798729956852
  C           2.09542526882946     -1.29764994909434      0.44797269543061
  C           1.98460531435580      0.42403884003733     -1.34873663093897
  H           0.97654017988815      0.66057607872784      1.94275120009984
  H           0.89126171992763      1.91773919897445      0.71245455575186
  H           2.45071966561319      1.26546519276341      1.19050266499877
  H           1.59857507039414     -1.73530014684404      1.31095262450130
  H           3.09490068552270     -0.99448280549539      0.75186099075680
  H           2.19847342341868     -2.06053061192181     -0.31828672829771
  H           1.51537386133209      1.33307890843499     -1.71468767182907
  H           1.94940595814436     -0.32502000580712     -2.13604409016263
  H           3.03091606782805      0.64591781462141     -1.15058489116700
