31
Coordinates from ORCA-job R E -45.790573754040
  C          -1.51895607449897     -0.29467668217084     -3.13887163781222
  C          -0.05709000918573     -2.91682569169999     -2.81894316168261
  C          -1.20060496508549     -2.57747322981108     -2.23087247078699
  C          -1.86497173433114     -1.29043397927047     -2.32124194817783
  C          -0.77907641808426      1.92454538819962      0.73244774511579
  C          -0.24370794181066      0.82221495645324      0.24428318578038
  H          -1.69946449492098     -3.29912502834630     -1.59737387532306
  H          -2.70772524622227     -1.15620005402184     -1.65698242357524
  C          -2.18129890159960      1.02703617765480     -3.21010279324215
  H           0.36948478576680     -3.89531659761790     -2.68408282205894
  H          -0.69992672614406     -0.39315203349052     -3.83606435969966
  H           0.49370501302600     -2.24223426892688     -3.45144129914763
  H          -1.83595209391367      2.11686927922957      0.64800669004901
  H          -0.88002056580213      0.09708699860672     -0.24897260061800
  H          -0.20427737282093      2.68453782894728      1.23229790887658
  C           1.20584598561304      0.41308359429635      0.27658338823579
  Cl         -3.47029758296276      1.26201275343474     -2.02668559588008
  Cl         -0.96287290477318      2.31694024173626     -2.96232296611721
  Cl         -2.88451315023406      1.25088985637798     -4.84795000831066
  C           2.07796730548589      1.38972229565887      1.06359931068988
  C           1.29224975665722     -0.97934387822969      0.91445337396907
  C           1.70700479050290      0.33267369045596     -1.17118852156023
  H           1.73582421543622      1.46608994357605      2.09309985627728
  H           2.05320982889889      2.37798350776544      0.61078329119589
  H           3.10973743167325      1.04407848045816      1.07015109323731
  H           0.90588242821998     -0.95550183573580      1.93112617178136
  H           2.32561175175705     -1.31814573352699      0.94494804381629
  H           0.71168474618777     -1.69962304672698      0.34082155830004
  H           1.63885298656272      1.30689813469980     -1.64976506191676
  H           1.10585125650015     -0.37348119290929     -1.73901040891448
  H           2.74445390010199      0.00582012493371     -1.19520966250090
