31
Coordinates from ORCA-job TS E -45.773401415620
  C          -1.54016775288037      0.26205448309097     -1.66124990889064
  C          -0.41689015725287     -2.01791039988206     -0.36284859913481
  C          -1.73525422009247     -1.94067685318707     -0.67473747016420
  C          -2.28980910534939     -0.83774693009227     -1.35181050529014
  C          -0.95824694081235      0.80389011095217      0.47589627506009
  C          -0.11213477560329     -0.13312870759984      0.97659175303832
  H          -2.42623489323047     -2.65318410412399     -0.24679812741594
  H          -3.36582683909145     -0.77899051938493     -1.43157198030014
  C          -2.15865085376957      1.46023188686845     -2.28233221300576
  H          -0.06105601532085     -2.82644373639386      0.25326492779371
  H          -0.48161449728210      0.18124697335972     -1.83930523349556
  H           0.32436679687324     -1.51213127795931     -0.94920222336103
  H          -1.99695546670270      0.79972777065218      0.75529562295877
  H          -0.49166261750920     -0.83632720764330      1.70321666730401
  H          -0.58814188084632      1.72241818050657      0.05857060127749
  C           1.39164740387973      0.07599447126924      1.02872099314523
  Cl         -3.62441762372657      1.98695904822084     -1.43042251881482
  Cl         -1.02481077256070      2.82675735377184     -2.33880597613430
  Cl         -2.62702427197014      1.09692166168933     -3.98991029930966
  C           1.62781220411128      1.11060646061314      2.14536343399283
  C           2.12851248815317     -1.20977976862005      1.41525097756251
  C           1.98099975477924      0.62333334101564     -0.27379837112592
  H           1.21827062084977      0.75344451727269      3.08756248591385
  H           1.14788096090819      2.05446606913712      1.90073866129083
  H           2.69300222540010      1.28715750685910      2.27801531999761
  H           1.68248398367164     -1.65727919532493      2.30067773294704
  H           3.17016478547543     -0.98716080827624      1.63719304469361
  H           2.10788686183812     -1.93823064707337      0.61011758957891
  H           1.48859490961875      1.54233017345751     -0.57844065958274
  H           1.89968121195044     -0.09894108267650     -1.08311354015287
  H           3.03759447649171      0.84039122950119     -0.13212846037628
