17
Coordinates from ORCA-job NEB_product E -36.913158791850
  C           3.22210576304709      1.13198430745936      1.56811926529357
  C           1.75309126846327      1.19009561243292      1.29234207679665
  H           3.70590814816438      0.57656478712883      0.75868728121170
  H           3.59803792430907      2.16116943818452      1.52707824351046
  F           1.53571845488216      1.58651166823221      0.01030047180131
  C           3.48746188514225      0.48615096961653      2.93233091350671
  C           3.15683806815374     -0.98163847431072      2.88336122516702
  C           2.28002215785475     -1.55785256443354      3.68247586387431
  O           0.83912535597029      0.96457022069004      2.00003998871084
  C           4.93194891143244      0.68203530769919      3.37858144941503
  H           2.84671554307177      0.96947672666404      3.68143235857545
  H           3.69188328734406     -1.55376815851938      2.13662339238545
  H           1.73419080947088     -1.00279105473127      4.42676625908290
  H           2.06665738948191     -2.60988441243649      3.61542410547082
  Br          5.22963017995051     -0.18191462441167      5.10580781164438
  Br          6.20063553127187     -0.06955361295958      2.10053012552975
  Br          5.35542932198956      2.58724386369503      3.59369916802362
