17
Coordinates from ORCA-job NEB_reactant E -36.884511624050
  C           2.51454696800850     -0.05989992691708      0.45626852088029
  C           1.49760954622773      0.60385504491884      0.97472095625210
  H           3.21324898664684     -0.61000653580641      1.05306401336067
  H           2.66050925679303     -0.05320103936917     -0.60591436162727
  F           0.65357514814300      1.28588589666738      0.18893419738420
  C           4.22592458566220     -0.09150783581784      3.83144226184605
  C           3.18615483648564      0.63359586102271      3.45087942485952
  C           1.81216398686353      0.06998950656086      3.24968740412648
  O           1.08863122354945      0.74981872887642      2.25085328410058
  C           5.59875090239850      0.40486168321133      4.06618926528478
  H           4.12683999246566     -1.15748514509212      4.00243393510927
  H           3.26714254529663      1.69759189637902      3.27310585513197
  H           1.22547324228927      0.22577734130119      4.16244136779795
  H           1.85333581392146     -1.00607915806257      3.03665269640925
  Br          6.14729141375916     -0.03539070192600      5.91242427720889
  Br          6.83232264001287     -0.52719429398861      2.83398397870817
  Br          5.83437891147653      2.31228867804207      3.81293292316708
