17
Coordinates from ORCA-job NEB E -41.934887232530
  C           0.72273924030427      0.70367463399692      0.88832072453304
  C          -0.67332013623454      0.57097576635682      0.71320201350691
  Cl          1.41141346180415      2.26311107455135      0.50078996033558
  H           1.14926569378318      0.31873639780237      1.81149502801406
  C          -1.36621617042449     -0.52511896115909      1.50958335512154
  C           1.34427541390852     -0.41349421692409     -0.46237281842458
  C           0.71749440911403      0.09350600667555     -1.60783866570548
  C          -0.70743720736993      0.03737169443092     -1.65773305734386
  O          -1.20776566902921      0.92840974619997     -0.41518009205097
  I           3.46733736629205     -0.35855460296573     -0.39290305220288
  H           1.00345857524441     -1.36500111819137     -0.07212380893450
  H           1.22233795499992      0.85255051806056     -2.18761208721801
  H          -1.16069841540219     -0.92662809858930     -1.43729920738461
  H          -1.17379179509453      0.53134786062674     -2.50205902166799
  F          -2.69041298681314     -0.44544543619088      1.43337567164645
  F          -1.03538864704706     -1.77140711379031      1.07472629544277
  F          -1.02329108803542     -0.49403415089042      2.80362876233253
