17
Coordinates from ORCA-job NEB_reactant E -41.967991094630
  C           2.05761455648850     -0.34060695022362     -0.02587940258424
  C           1.54704969394553     -1.53100094591153     -0.34501904738763
  Cl          2.81820019005436      0.78978766650718     -1.07396861510601
  H           2.01507359289833     -0.00017140232424      0.99607220674512
  C           0.90274969223638     -2.36143108805428      0.75773646184369
  C           4.19796997686242     -2.99054759594725     -3.34716920383204
  C           3.58721555738804     -2.10318776369937     -2.58680983508861
  C           2.11273318293410     -1.84021434295092     -2.67916153669120
  O           1.43092842154687     -2.22978476708043     -1.49101243446472
  I           6.25952972747404     -3.36198284678917     -3.23952148527689
  H           3.69518481187791     -3.58074930126865     -4.09478528464512
  H           4.12594372948453     -1.53546287241505     -1.84255644414725
  H           1.65781148755484     -2.46051673373276     -3.45498933876587
  H           1.92581205626788     -0.78547840352906     -2.90218035561246
  F          -0.37889865521066     -2.62725183328752      0.48816752336461
  F           1.52239537471078     -3.53743657538218      0.90483198570177
  F           0.92828660348614     -1.76116424391113      1.95274480594684
