17
Coordinates from ORCA-job NEB_product E -41.966564040160
  C           2.99696592225178     -1.89327763557072     -0.46380876580195
  C           1.49518615050448     -1.79257636985489     -0.34176274795709
  Cl          3.48243156644373     -0.24318559791016      0.07807044042458
  H           3.41718855171078     -2.59906962705030      0.25714373733462
  C           0.97965479975892     -2.22498692074608      1.06472217488827
  C           3.45379820639389     -2.19381979580362     -1.87950324734937
  C           2.99889460784318     -1.21084310594697     -2.89489345586858
  C           2.45877956009956     -1.56095462824941     -4.04861592965733
  O           0.73555048781465     -1.42135498677570     -1.18358073440376
  I           5.63924687844764     -2.28968529650909     -1.88402132751763
  H           3.13290289622518     -3.20415813300485     -2.14145092404527
  H           3.15995852728739     -0.17219254966951     -2.64498372697612
  H           2.30185978653049     -2.59306204507414     -4.31662077487063
  H           2.14399523109509     -0.82510943705807     -4.76647955758809
  F          -0.32484847076804     -2.03167610348734      1.20201148152037
  F           1.22089686144678     -3.53777166362175      1.23356719567972
  F           1.59993843691450     -1.58797610366740      2.06180616218825
