21
Coordinates from ORCA-job NEB E -40.306487335100
  C           0.46663331305834      0.76600528185404      0.71043071481578
  C          -0.70694594475830      0.23915820068399      1.31712491103301
  C           0.36383100383706      2.06819051930413      0.14547517776377
  H           1.39027941100408      0.61884615028629      1.26572960648123
  C          -0.56804792853044     -0.71152243830051      2.46870955158559
  C           0.53883404577835     -0.36283090405568     -0.82329145529993
  C          -0.67981977352172     -0.08572311268855     -1.46483736882446
  C          -1.86931755496208     -0.40493844561462     -0.75730977730196
  O          -1.83502655636047      0.33366886448308      0.69589680987844
  C           1.81712884285206     -0.16972799581220     -1.58655776586004
  H           0.59080868011297     -1.30798811728983     -0.27925015760642
  H          -0.71353588668062      0.71469515602837     -2.18968016213962
  H          -1.96259464387135     -1.43168998460352     -0.41090538413124
  H          -2.78988678731189     -0.03053724229090     -1.18717763738201
  N           0.25271869276806      3.12764306810091     -0.27139253395444
  H           0.05270789047937     -1.56521717665012      2.18738522687844
  H          -1.54915269610090     -1.06897193566448      2.76910793215773
  H          -0.09187535535013     -0.22089321544932      3.31508695412779
  Br          1.98196566953109     -1.71767714833103     -2.81340066244750
  Br          1.92141191546738      1.43849236639243     -2.66681028680215
  Br          3.38988366255915     -0.22898189038250     -0.42433369297201
