21
Coordinates from ORCA-job NEB_product E -40.353933735280
  C           3.03754797212866     -1.65574533033095     -1.17305432791405
  C           1.87376542182897     -2.22731264561051     -0.32466256881684
  C           3.08727875739791     -0.22194207895796     -1.00824436471492
  H           3.95950928693223     -2.07839363885722     -0.74812228584547
  C           1.85392896486051     -1.73937849556963      1.08945774977417
  C           2.88128250535854     -2.07698973313318     -2.65086047139260
  C           2.00630905620815     -1.10790681355346     -3.40043180443573
  C           0.79237026780532     -1.41237826607150     -3.81670768066871
  O           1.08591622587794     -2.99995061974412     -0.79146692409886
  C           4.21898204043118     -2.24216431753478     -3.35548472498845
  H           2.38975328134390     -3.06091826031723     -2.64945224953070
  H           2.42663565642013     -0.12466228879920     -3.56750188140214
  H           0.35802467947538     -2.38326528287615     -3.64439563360991
  H           0.18309515221530     -0.69525191193109     -4.33760350493837
  N           3.09914399682189      0.91102731364677     -0.86227145955281
  H           2.83616140760988     -1.83163815343312      1.54779732946398
  H           1.12045938996168     -2.29938303042857      1.66362001724886
  H           1.58305827828602     -0.68372486748569      1.09648505862005
  Br          3.92160629526711     -2.78686151635561     -5.21080087584060
  Br          5.28339734146203     -0.60180452409016     -3.36300796926648
  Br          5.29277402230727     -3.64985553856665     -2.49859142809040
