21
Coordinates from ORCA-job NEB_reactant E -40.351630057160
  C           1.69632502480221     -0.12221618196705     -0.76933274249493
  C           1.51396660072140     -1.28727721446206     -0.12007297257423
  C           1.68582537962803      0.12034597930501     -2.14683865202728
  H           1.86270383295439      0.76788463535077     -0.17871184332051
  C           1.53780422069525     -1.35669871540730      1.37612111087514
  C           3.09875182635699     -2.26259163260056     -3.74295450233829
  C           2.76274459039225     -2.69268207675438     -2.53819746624673
  C           1.35298600665747     -2.73356741290345     -2.03151501823842
  O           1.28868130777658     -2.51220308714697     -0.63790350868297
  C           4.46654204534014     -2.21138010029267     -4.29599645001929
  H           2.34772438543209     -1.88400169736938     -4.42578565679581
  H           3.50074078544779     -3.05886917855079     -1.83584341044194
  H           0.95732426781593     -3.74830113880485     -2.16076813907834
  H           0.71135262176332     -2.03388612188612     -2.57705298301051
  N           1.67497296785082      0.38363171339485     -3.26630981841992
  H           2.44507758745610     -1.86336611139716      1.70357017707874
  H           0.69055895108320     -1.94355653315332      1.72443073185886
  H           1.50428411791679     -0.36705942540267      1.81915349955135
  Br          4.90935047618367     -0.36108637882191     -4.79829328248444
  Br          5.84983161723905     -2.84270730902722     -3.09430474106018
  Br          4.54905138648654     -3.32161201210275     -5.92509433213028
