17
Coordinates from ORCA-job NEB_reactant E -29.105337733660
  C           1.88176281632999      0.08686848533724      0.09791229041097
  C           1.49120980822788      0.32234742231226      1.34155903737799
  C           1.85806323617709     -1.26431603472805     -0.53405358668429
  H           2.25554068834035      0.90449486614034     -0.49837292526642
  Br          1.56898705648813      2.14046130774250      2.01821088472311
  C          -0.49056927600086     -1.40151428846509      5.15443297569075
  C          -0.30124646374657     -1.55878596062063      3.85702486765552
  C          -0.10727309041856     -0.40958651397879      2.92205754600677
  O           1.12030317210411     -0.61099072725858      2.22981426110915
  Br         -0.76059876874026     -2.85470236180593      6.32445991284219
  H          -0.52953293104171     -0.44334030077090      5.64861754337829
  H          -0.25716924138101     -2.54103486070883      3.40987278823716
  H          -0.08119746830401      0.53978267973623      3.47243004992086
  H          -0.93490170174204     -0.37514250211830      2.19711659520880
  H           1.43003182966686     -2.00002647371634      0.14076978089739
  H           2.87156286159989     -1.57024896494722     -0.79039287171659
  H           1.27652747244074     -1.23306577214989     -1.45465914979167
