18
Coordinates from ORCA-job NEB E -36.684681159920
  C          -0.13700115384868     -1.24744740094217     -0.21680328209016
  C          -1.01352052747450     -0.45096815938300     -0.98809208963706
  Cl         -0.80790316042576     -2.13666736582975      1.12578392446096
  H           0.58358258609570     -1.84696891192482     -0.76638486387739
  N          -0.50442800090327     -0.14804625001215     -2.35200436756886
  C           0.94557675070844      0.11392992226998      0.63764397759315
  C          -0.08753495849943      0.91371227630985      1.20749253301690
  C          -0.93062361365562      1.67208045323471      0.42266143154582
  O          -1.84785385807659      0.34315963230822     -0.51380032759897
  N           1.82488303415707     -0.52972970133591      1.47843178986310
  H           1.42972071124100      0.50034230330617     -0.25557059644998
  H          -0.39269010542108      0.66373182658711      2.21398184772624
  H          -0.57079444402171      2.13124271144036     -0.48728031539561
  H          -1.76446860966655      2.17537783789831      0.88420749260963
  O          -0.94188021422922      0.84205161742860     -2.88693765959455
  O           0.31214585353021     -0.91254698536594     -2.82957910048540
  H           1.40204598868412     -0.95222538754413      2.29331595996879
  H           2.50074372180587     -1.13102841844544      1.03293364591339
