18
Coordinates from ORCA-job NEB_product E -36.697628715310
  C           2.55622123372682      0.58003391986720      0.86728151344370
  C           1.38898410394092      1.08902086195218      0.09911362296581
  Cl          1.95519583230495     -0.23945113401544      2.33458631081036
  H           3.12698514000323     -0.14869166186906      0.28616416440081
  N           1.75462553880724      1.43428628182092     -1.37404803838910
  C           3.51768015569732      1.74832443828618      1.24327049566160
  C           2.77030547097470      2.81087015894117      2.00699724260552
  C           2.57681762549332      4.03550014565312      1.55588707790492
  O           0.27425752277980      1.29730811496900      0.43120302049692
  N           4.64070926540148      1.17469618184394      1.95194085843457
  H           3.90160947645843      2.15977153291731      0.30193877303161
  H           2.41021989016481      2.51036506150627      2.98124920168243
  H           2.93277047822516      4.34843854712932      0.58724698665129
  H           2.05459448373698      4.77747068903965      2.13418097881807
  O           0.88048561861494      1.95272489275243     -2.00918553199619
  O           2.87152382973450      1.16440685661209     -1.74503182985030
  H           4.35147483870416      0.82251424646415      2.85824444962708
  H           5.37103949523124      1.86221086612955      2.08516070370091
