20
Coordinates from ORCA-job NEB E -33.536751567460
  C           0.70236118613729      0.06971420048487     -1.03472106006374
  C          -0.52927017677673     -0.54070784598224     -1.25074954954897
  H           1.56951032452067     -0.56281836730944     -0.91515473089215
  H           0.90431023426526      1.00585514776904     -1.53645402560448
  C          -1.69486363741692      0.22139971150832     -1.81067467163028
  C           0.48362084460094      0.49001831166702      0.83760676238539
  C           0.21039402034023     -0.74801671759391      1.41664962006992
  C          -0.95488413951629     -1.43983639157547      0.94394942571957
  O          -0.78366543757351     -1.65994811387479     -0.60288951131450
  C           1.76298790683309      1.19346760044293      1.21946750890713
  H          -0.32957648529106      1.20090875752860      0.72716387151883
  H           1.04591480148783     -1.34231942433287      1.75705442221061
  H          -1.88421405622238     -0.87142346034312      0.99809251195945
  H          -1.08279895945505     -2.44919902818073      1.31871523264657
  H          -2.40576085724636      0.45262131218824     -1.01339474299685
  H          -2.21936311279640     -0.39169895386602     -2.54128222904339
  H          -1.37099530297717      1.14359615307685     -2.28231543153237
  F           2.85153522426463      0.41032205833273      1.03434214561487
  F           1.95933837826057      2.30099524443656      0.46023905903744
  H           1.76541924456139      1.51706980562341      2.27435539255695
