20
Coordinates from ORCA-job NEB_reactant E -33.566760433930
  C           1.59730843314330      0.03225884807210      0.09589606134701
  C           1.47089352666500      1.22342195449836      0.66572592531713
  H           2.23801726714019     -0.74547292841965      0.46802032505820
  H           1.03899811568529     -0.19980600967246     -0.79096964005821
  C           0.57495697770472      2.30567963539025      0.14183179273531
  C           3.28969282882829      2.61849596350066      4.07245957627915
  C           3.58488775903993      1.40119778746327      3.64986792690299
  C           2.99563703990631      0.76511213016745      2.43323926786613
  O           2.11604449179060      1.65339950531619      1.79134364639257
  C           3.88913422868564      3.24342878623061      5.29270478444350
  H           2.57147626640789      3.23663968697542      3.55730016579213
  H           4.29806578399743      0.78553882285861      4.18024726824036
  H           2.46497187847086     -0.15252748849320      2.73290960916028
  H           3.80978439031194      0.47072921712987      1.75191615375145
  H           1.16400800289987      3.19161366882115     -0.08782341353462
  H          -0.15411992902983      2.57869269993787      0.90236950141114
  H           0.05706283491815      1.97555511870989     -0.75206694457357
  F           2.92080629324491      3.57667589051422      6.18987785843209
  F           4.73159242724665      2.40631305250616      5.94471964077512
  H           4.44838138294287      4.16845365849322      5.06743049426187
