20
Coordinates from ORCA-job NEB_product E -33.586625901410
  C           2.36676657694126      1.69160134744828      1.57765213893655
  C           1.20661539808464      2.63481002208619      1.32520864979804
  H           2.11887984005129      0.72830584714506      1.12450887247939
  H           3.25600163387191      2.07221693735852      1.07031639143007
  C           1.01892462453656      3.00599142745367     -0.12185031093085
  C           2.65692272888286      1.47755369015720      3.06890272116821
  C           3.65637073599421      0.37271816511194      3.26219214678061
  C           3.41251281726694     -0.72838139479224      3.94506803322515
  O           0.50338164344814      3.05548033096085      2.20778637442227
  C           3.18915216608413      2.77701742687896      3.67946948377503
  H           1.72487143733429      1.24228021229109      3.59143976507063
  H           4.62129338416224      0.54371423895660      2.80436746507422
  H           2.45919404514305     -0.90547249574722      4.41529338658819
  H           4.15585726389714     -1.49707880859375      4.06557297286672
  H           1.79228129881180      3.72053402494131     -0.39993970318286
  H           0.04771565770853      3.47137391070171     -0.26615471338367
  H           1.11705841415188      2.13504806880098     -0.76391390582671
  F           3.51211763813428      2.60361855386943      4.98234051107177
  F           4.33241215995362      3.17478496423508      3.05974767849787
  H           2.46877053554124      3.60518353073634      3.61779204213936
