20
Coordinates from ORCA-job NEB E -50.705289342440
  C          -0.81807587401705     -0.93279859103210     -0.05448499057359
  C          -0.15928070057802     -0.61986255334606     -1.29403980057801
  F          -0.64473503935931     -2.24440640305163      0.29335433762219
  H          -1.88435610841780     -0.71343384147705      0.00725629922064
  C          -0.68416954947976      0.34705377924350     -2.29517619227562
  C           0.03783084295270     -0.13973264114785      1.23323409789506
  C           1.33277256585452      0.26671507605733      0.76698341197679
  C           1.97862074499158     -0.72428622772846     -0.04728851605189
  O           1.13200248045972     -0.78558649771133     -1.34687561438079
  C          -0.78432341499960      0.91855336483144      1.93655153164698
  H           0.10076747837449     -1.01499053667502      1.89125250269285
  H           1.50225322852942      1.30823890348794      0.52622829967552
  H           1.94815703152858     -1.74050576775652      0.34831417976983
  H           2.96103419120522     -0.46382851941721     -0.42708893852153
  Br         -0.51609748560902     -0.48008313009785     -4.07747023557336
  Br         -2.53308748074574      0.85333720435124     -2.06083385794254
  Br          0.45418626082453      1.97338818961390     -2.32389315595247
  Br         -2.50932603737558      0.21028624688706      2.54153182227780
  Br          0.20608265557584      1.48774654684236      3.53531228108975
  Br         -1.12025578971472      2.49419539812632      0.84713253798238
