20
Coordinates from ORCA-job NEB_reactant E -50.744081418020
  C           1.95159140813867      0.15722834241350     -0.06841783908915
  C           1.66844805720152      1.45585155164474      0.01996583790191
  F           2.41564269222364     -0.56913663752421      0.96236717392386
  H           1.83900277435600     -0.43469412863980     -0.96112451131841
  C           1.13944404404601      2.24968777472256     -1.13078562970073
  C           1.93579334996840      2.89973130092413      4.53935496811310
  C           2.25339930318382      2.98307076848138      3.25777428178655
  C           2.23074974713083      1.81436486581829      2.32891143540013
  O           1.76588233156957      2.29479003975300      1.07725293549473
  C           1.97338011171258      4.00695749670087      5.51876891140404
  H           1.62989543028622      1.95634895929041      4.97652974716619
  H           2.55308815087926      3.91482991110564      2.79779162385927
  H           1.57948355445259      1.01716912877473      2.70366965608062
  H           3.25038462770406      1.41772395404246      2.22146487987171
  Br          0.99906074805345      1.29478883043142     -2.79682095451697
  Br         -0.64111917634500      2.91637817926737     -0.64695011065072
  Br          2.30883897131382      3.79341899676373     -1.40378150516756
  Br          0.19341221583907      4.19826604040265      6.34764050217164
  Br          3.25923700432820      3.55490903806892      6.94973457916032
  Br          2.48008465395731      5.72901558755820      4.78745401810949
