20
Coordinates from ORCA-job NEB_product E -50.746300821030
  C           1.13395783336031      1.71655768533054      1.78375401576009
  C           1.73440291850177      2.51377572303579      0.62429726866611
  F           1.47952796406743      0.40522797397191      1.56536498358443
  H           0.03619939505098      1.74485552577776      1.78807374022538
  C           0.76471507205711      3.01637830849400     -0.43306237551732
  C           1.70647984948116      2.11408145439486      3.16397662662948
  C           3.21310519558653      2.13022670832396      3.15447030802139
  C           3.93627314301521      1.09506943932179      3.53677643648689
  O           2.91155432347566      2.61046518020184      0.43935838712753
  C           1.14983787866428      3.43637982595892      3.66116225621716
  H           1.36947911373576      1.32703039659510      3.85369273227327
  H           3.68418356298918      3.03399347815967      2.79421149798757
  H           3.48746674254308      0.17907457007243      3.88388364019709
  H           5.01032287921815      1.12510374905652      3.50334351303371
  Br          0.39063818853237      1.37618061017224     -1.45423286628619
  Br         -0.90594616538575      3.74178148262160      0.20386828718369
  Br          1.65245918517207      4.30544130655409     -1.55740742400117
  Br         -0.79091828009303      3.35118716549699      3.92165246780880
  Br          1.95774576490205      3.86964780657957      5.38260126501969
  Br          1.54251543512567      4.89954160988041      2.42611523958240
