19
Coordinates from ORCA-job NEB E -44.125175877210
  C           1.07020064491375      0.30094048547353     -0.37773679110803
  C           0.46952995681843      1.55272262847646     -0.53570195048741
  C           0.88637101758704     -0.69670785282422     -1.51154469148463
  H           2.08415106212215      0.27274179946463      0.01297736388218
  I           1.29012034320772      3.16995492746715      0.61361418353521
  C          -0.08069544243699     -0.38066732117893      1.02349621550246
  C          -1.37687597693902     -0.16528176712870      0.54967750723968
  C          -1.77628610743595      1.16991500628971      0.24680533869899
  O          -0.75101857969529      1.65991894282309     -0.89033969603057
  N           0.31375974631483     -1.78063380604932      1.22009149587123
  H           0.33538392754424      0.24035079177790      1.81293785309981
  H          -1.87964973305546     -0.99408592557975      0.07117312854030
  H          -1.59964438191352      1.91813069506243      1.01903286595202
  H          -2.74293907866604      1.28721656607348     -0.22832450771771
  F           1.37465866444983     -0.16494332536777     -2.65689772426203
  F           1.61731915007507     -1.80240978233080     -1.27090328967863
  H          -0.15633420281612     -0.99450564371221     -1.69838830329859
  O          -0.29125328200342     -2.62006670106843      0.60269444339893
  O           1.21320227192876     -1.97258971766825      1.99733655834679
