19
Coordinates from ORCA-job NEB_product E -44.169660776170
  C           1.62037369939209     -1.27419431776125      1.82623780209598
  C           1.36531084916619      0.17891016856696      1.53273434462137
  C           1.25856596058704     -2.09883131332219      0.57926690254666
  H           2.68513209297614     -1.43695130464866      2.04823467227968
  I           2.31056983385323      1.49991271809178      2.95537597794436
  C           0.81112052764562     -1.70978065503088      3.06158479213014
  C          -0.65675141567107     -1.85934765523720      2.80088400264085
  C          -1.54632996456622     -0.95652644942760      3.16872372548203
  O           0.70721242522649      0.62229385919457      0.65935327216703
  N           1.38859000364909     -3.00320266724335      3.59951821227186
  H           0.98151198776637     -0.97770368321452      3.86342931891912
  H          -0.95269533708199     -2.76588560229547      2.29306661626192
  H          -1.26860751604157     -0.05531775580891      3.69153361440721
  H          -2.59324739638351     -1.08272638274903      2.95954369595050
  F           2.21284786250935     -1.93557020332469     -0.35797037907311
  F           1.22613958457943     -3.41494215598703      0.87794004477351
  H           0.28997814751209     -1.81878007191214      0.13842972788802
  O           0.60633785716675     -3.78674854570588      4.05626649205727
  O           2.58454079771448     -3.11000798218452      3.56724716463559
