24
Coordinates from ORCA-job NEB E -55.685811727700
  C          -0.01906622342930     -0.33503712636240      1.06796766438871
  C          -0.07605026249284     -1.64222889165510      0.50936974462666
  C           1.19448601804622      0.23771403327480      1.73484161917268
  H          -0.89978646826441     -0.13623520229858      1.67884486153209
  C           1.11510339658971     -2.30752330869047     -0.18626353667036
  C          -0.55223574734064      0.73364964808681     -0.43533469764585
  C          -1.79597307397854      0.13066285809908     -0.75500298236900
  C          -1.84967039991580     -1.17230029563183     -1.23452150631381
  O          -1.21790607386821     -2.08019283588529      0.17091012355022
  O          -0.58900497665991      1.99936729340567      0.06676213023568
  H           0.28642446009094      0.53862968239321     -1.10872915132438
  H          -2.66444391859292      0.55980726523422     -0.27527880985352
  H          -1.09923110321013     -1.50800881082992     -1.93815983021880
  H          -2.81617433766343     -1.63627558832123     -1.35789815623248
  Br          1.74772906861826     -0.96886189825368      3.20239456710754
  Br          2.72406988638575      0.54029971088823      0.57819692990028
  Br          0.78125589420946      1.93216024102609      2.59873078266350
  F           0.78566842569400     -3.52600412142450     -0.60688019937787
  F           1.49260969826300     -1.61590682014239     -1.29061317757303
  F           2.20680221002680     -2.43261817887911      0.57304180300373
  C           0.17080645184868      2.97534221243615     -0.62397293953234
  H           1.18604007583295      2.62938473743827     -0.83518321902362
  H           0.20827948150715      3.84294278426694      0.03110365912401
  H          -0.31973248169680      3.24123261182501     -1.56432567917003
