24
Coordinates from ORCA-job NEB_product E -55.707523612640
  C           1.27286800161604      1.22068559686772     -1.01129911174307
  C           1.76143266111557     -0.03674897328356     -1.69857250539629
  C           2.14388880230999      1.75903454705308      0.11326093641136
  H           0.32627284315083      0.91644254338702     -0.53876461959658
  C           3.17017124850034     -0.06245790205267     -2.36822210972782
  C           0.92103440515900      2.27943328874381     -2.11876367708646
  C          -0.56343115950883      2.53909578132454     -2.09060223585992
  C          -1.39705855392009      2.09471536429724     -3.01050805055076
  O           1.07189052310511     -1.00832958588081     -1.81171174841814
  O           1.66960868846840      3.43721457241185     -1.86450694134613
  H           1.18932145475071      1.86811364779694     -3.10753779799562
  H          -0.89824724629019      3.13377113968801     -1.25212254179445
  H          -1.06107933128890      1.50573281038652     -3.84862697452982
  H          -2.45254638117791      2.29549526236986     -2.95785169124764
  Br          2.45449262917302      0.28582475299890      1.38269070055856
  Br          3.85805127328136      2.50072494179484     -0.35231655991477
  Br          1.15057180747708      3.13635319154314      1.05488603586629
  F           3.21191478081996     -1.03666143641337     -3.27459454101891
  F           3.47991874097553      1.07267562247980     -3.00662421777448
  F           4.13064878528572     -0.30508416842065     -1.47316483226735
  C           1.78888474071455      4.31036709926306     -2.96355864736293
  H           2.28873855022056      3.81278030618041     -3.80102383769737
  H           2.39741776545638      5.14179419063353     -2.61608535490117
  H           0.80873497060576      4.67462740683079     -3.28547967660653
