24
Coordinates from ORCA-job NEB_reactant E -55.723881527080
  C           1.61418234007989      1.22020472694030     -0.62575216332198
  C           1.67922522553086      0.32706264934038     -1.62194095568302
  C           2.55945067851618      1.46905719858431      0.48217504476702
  H           0.74430117991088      1.86136008501372     -0.60878231478222
  C           2.78788907669669     -0.69405793403575     -1.84736053329833
  C           1.12722747011458      2.90742938885856     -3.51033441234984
  C           0.03551836345999      2.52086515532750     -2.85458544871367
  C          -0.33013734086364      1.07163945899819     -2.68736728798873
  O           0.79063624133811      0.19531752658889     -2.61388581597627
  O           1.58168829013062      4.15157502173071     -3.71742896538833
  H           1.80323367785308      2.18628515758468     -3.95306645310735
  H          -0.65343111409631      3.22460947442626     -2.41661615833546
  H          -0.88098081508376      0.69693766327060     -3.55625730457088
  H          -0.95899005053111      0.93721801232197     -1.79838407537279
  Br          2.36935233414679      0.12508520329485      1.93183539859404
  Br          4.43910954566519      1.56552552494334     -0.04994394377449
  Br          2.12981157863471      3.20286903615448      1.27798842465709
  F           2.32348503437110     -1.76453966563338     -2.49034539393560
  F           3.77628836653691     -0.18739589620749     -2.59701971748494
  F           3.33700483317875     -1.13832592845000     -0.71414358535542
  C           0.83512838472848      5.22702918640625     -3.19024630307117
  H           1.37496793278081      6.12962663261711     -3.46822760707972
  H           0.76748286806125      5.16369115989682     -2.09989004904392
  H          -0.17174410116002      5.25553116202769     -3.61652037938403
