19
Coordinates from ORCA-job NEB E -39.622616372340
  C           0.39286924841082      0.93003234615017      0.13159288519602
  C          -0.58181260867082      0.90537357167372      1.19620568019799
  Br         -0.31022819033624      2.00777577706342     -1.40798582133795
  H           1.31321381991360      1.43443287146217      0.42435465132547
  N          -0.28207847380862      1.35262750517918      2.45486902634524
  C           0.67092546879597     -0.58044497992590     -0.30140125325596
  C          -0.60629774088108     -1.24717048582790     -0.55474866185384
  C          -1.85820367439799     -0.67416123207153      0.00591021456638
  O          -1.72925220327173      0.25302929534260      1.07017195776494
  C           1.66907666138254     -0.77689419217056     -1.45854867730472
  H           1.22867302417954     -0.96887191755311      0.57186646488103
  H          -0.75121140847504     -1.70161077278692     -1.52311778363635
  H          -2.49612453197281     -1.45954769745165      0.42746000517663
  H          -2.44019876713274     -0.18636883822518     -0.79261340018371
  H          -1.05043069753116      1.32088742014075      3.10806942636542
  H           0.32028075250812      2.15658762320590      2.53362008413653
  Br          2.31794808983384     -2.63610406156866     -1.38038115190481
  Br          0.94516278735769     -0.50921928690969     -3.25123625332943
  Br          3.24768844409611      0.37964705427319     -1.25408739314888
