19
Coordinates from ORCA-job NEB_reactant E -39.668819785510
  C           2.12499860814609     -0.44131829553469     -0.54352894931898
  C           1.64863245268624     -1.27975659584284      0.38616328004239
  Br          1.68399415313366     -0.38362951314553     -2.38459092036027
  H           2.81384588121375      0.33500708677468     -0.26254554262697
  N           2.06005920338445     -1.16478903458897      1.70395021053752
  C           2.74858353998877     -3.64379929346628     -2.41594806620988
  C           2.25542056259824     -3.58136204726840     -1.18983566607067
  C           0.85209035860551     -3.16415195048827     -0.88280591319349
  O           0.79066658373100     -2.33242224126366      0.26256985237500
  C           4.12824518624876     -4.02488155493466     -2.77919166029676
  H           2.13740061192789     -3.38586325692928     -3.27277766241004
  H           2.85623661091192     -3.81446739550011     -0.32000143478364
  H           0.26349308549063     -4.04486032642979     -0.59995798371165
  H           0.37600459951763     -2.69410806202523     -1.74936545515963
  H           1.47497132339023     -1.67579368037052      2.34746412499991
  H           2.31712119598079     -0.24353670753912      2.01872691787040
  Br          4.08371179151899     -5.52499786229379     -4.05876336940021
  Br          5.00794234689428     -2.49769925804796     -3.66732926493816
  Br          5.24508190463111     -4.56057001110558     -1.28643249734487
