19
Coordinates from ORCA-job NEB_product E -39.699930654700
  C           3.00323950218458     -2.00342962638540     -0.38928012754838
  C           2.03598574200472     -2.19225225593999      0.79823105971026
  Br          2.86119589168428     -0.17047087509766     -1.07344336193105
  H           4.02384043698500     -2.08498381632960      0.00099603141699
  N           2.05716450362189     -1.20150623067307      1.70071131814118
  C           2.73427309654554     -3.06664019359972     -1.46143658620460
  C           1.70686302159291     -2.61448003972201     -2.46554977537960
  C           0.43244486912318     -2.94289724554246     -2.37847441071346
  O           1.36714465931905     -3.19149178626996      0.91020219221628
  C           3.99647717002216     -3.54077675029595     -2.16187239076578
  H           2.32017516345488     -3.92995901767127     -0.91608605189429
  H           2.06779185026513     -1.97748506682963     -3.26288150239957
  H           0.06157109591252     -3.56674073461173     -1.58184361064506
  H          -0.28683796662095     -2.58754327560595     -3.09499427155164
  H           1.44474860430236     -1.26925272293843      2.49693753184070
  H           2.57610432780770     -0.35063456468732      1.56233589797895
  Br          3.53128395688638     -4.91045145413619     -3.48139376597974
  Br          4.94125014491483     -2.10972277426127     -3.08648899444788
  Br          5.24978392999384     -4.35518156940239     -0.88256918184331
