19
Coordinates from ORCA-job NEB E -41.615439433500
  C           0.92737078521401      0.18133943213643     -0.42943365824972
  C           0.12846427418357      1.17229809621131      0.19587030795967
  C           0.64848205927769     -0.08991846825420     -1.88324117404600
  H           1.99975377472020      0.23106891533217     -0.26281645804347
  N           0.66060958712294      1.90554073313253      1.22758123017110
  C           0.27784427352180     -1.36750220918966      0.58725740053330
  C          -1.10328337094773     -1.35461043226997      0.39326061729665
  C          -1.79895954745888     -0.20929526624766      0.85348346129159
  O          -1.15188606719441      1.12952843998493      0.08520343773472
  Br          1.26613638005888     -2.90036911175982      0.01177298686837
  H           0.67603614472786     -1.02165812483913      1.53573997322441
  H          -1.52445160460331     -1.92944687007995     -0.41632028635192
  H          -1.60719151354632      0.10305210347384      1.87631547776175
  H          -2.84060129627156     -0.13302409400965      0.57235211949000
  F           1.46210288736207     -1.02185174745217     -2.39390717021147
  F          -0.59695104998545     -0.45801202106600     -2.17914377539164
  F           0.88609263629734      1.02837785449246     -2.61220378120069
  H           0.05099353231442      2.59922329028889      1.63109590257822
  H           1.63943811520688      2.13525948011566      1.20713338858514
