19
Coordinates from ORCA-job NEB_reactant E -41.646412084690
  C           1.73965192193153     -0.00257565871439     -0.02533346356367
  C           1.24160681069924     -0.40229958376632      1.16198983760905
  C           2.01232097355875     -0.97428985807293     -1.10821262257443
  H           1.96748320395501      1.02436714448442     -0.23586427544313
  N           0.84919759893480      0.47926837102525      2.14089474675860
  C          -0.17965424813826     -4.56263623718497      2.87450208464062
  C          -0.25054873729775     -3.54143702029591      2.04021176981050
  C           0.19162191636057     -2.15686702927966      2.39972670885591
  O           1.07156371766047     -1.71893279187718      1.37599751560717
  Br         -0.76999667564242     -6.29231373375551      2.41767161898872
  H           0.19366388751663     -4.49527062318221      3.88466842872266
  H          -0.61493406591507     -3.65789925873332      1.03027188721235
  H           0.70011978842719     -2.15606657244629      3.37421072723049
  H          -0.68322004387510     -1.49384962595693      2.44833343973520
  F           3.01705322791919     -1.83564005172038     -0.83102424163193
  F           0.95430588183920     -1.75335670100954     -1.41688309750792
  F           2.36482254339675     -0.35593343622200     -2.24720237360214
  H           0.96813176888050      0.18068647864866      3.09666280013861
  H           1.11701052978878      1.43584618805922      1.97627850901334
