20
Coordinates from ORCA-job NEB E -44.887733302610
  C           0.56373756926889      0.96903117052857      0.56529156197159
  C          -0.85934379528352      0.87828349412207      0.55224914532548
  O           1.19091476202531      1.80691766957911     -0.27308394480242
  H           1.08051967706905      0.90178430041659      1.51919045284827
  C          -1.56777626095123      0.29857453543396      1.76676881643300
  C           0.86361508648928     -0.79274773489334     -0.24017181878196
  C           0.15676827433905     -0.71566053887240     -1.45124941506192
  C          -1.23482446131015     -0.66352382370739     -1.44039576160976
  O          -1.45811450660588      0.89530438525367     -0.57199764681118
  N           2.31752464964659     -0.77301115335916     -0.33199154871865
  H           0.52977155637304     -1.43459286367497      0.56704097738541
  H           0.70354806654561     -0.34019038440685     -2.30728007181079
  H          -1.77938919658235     -1.27412292576820     -0.73375291992417
  H          -1.75639835751953     -0.46888541546491     -2.36467991938784
  H           0.62347020054065      2.00291855253594     -1.03619111307951
  F          -1.41174118834466     -1.05752436443934      1.83957025999493
  F          -1.04589503060138      0.79126115272521      2.90947328408705
  H          -2.64699248531915      0.50731984658525      1.74626363131249
  O           2.81228941180911     -0.26667390109082     -1.30830795633393
  O           2.91831602841127     -1.26446200150299      0.59325398696393
