20
Coordinates from ORCA-job NEB_product E -44.913761522330
  C           3.18007383494720     -1.22785550678990      0.42478666722006
  C           1.71105577217201     -1.01299720646082      0.71694015945290
  O           3.69101227779080     -0.17799051244276     -0.32646198444302
  H           3.74449979997361     -1.29484592222778      1.36876516477311
  C           1.03933871670556     -1.99564418299278      1.69500412288036
  C           3.35070106347656     -2.59391977852991     -0.30798340558402
  C           2.76274301383399     -2.58012173724335     -1.68181975454041
  C           1.76753503411557     -3.36373050480263     -2.05204596622897
  O           1.08086626470566     -0.13594773323764      0.19198684527875
  N           4.83300048716453     -2.85699152931993     -0.36927108105078
  H           2.93267697451007     -3.39757222328957      0.30662956433773
  H           3.21426239217941     -1.87579780352889     -2.36546649637059
  H           1.31412308315575     -4.07259172519439     -1.37883578664788
  H           1.36190970735130     -3.32095401597796     -3.04699714651592
  H           2.95351376644094      0.31407494319037     -0.72059228675498
  F           0.51269582881654     -3.03086386718325      0.99757290975995
  F           1.93231797536257     -2.52834444084101      2.55467829028300
  H           0.23068061706692     -1.51526126850287      2.26544842465072
  O           5.30231543683205     -3.12398625232736     -1.44038578967136
  O           5.42287795339896     -2.80465873229758      0.67754754917135
