17
Coordinates from ORCA-job NEB E -36.597793573120
  C          -0.31720859120890     -1.97941856777997      0.51673911933268
  C          -0.81874195551133     -0.94068056844606     -0.15323949850421
  O          -0.21044565890182     -2.03182137927338      1.84913142802734
  H           0.01064595111640     -2.88032357552161      0.02183877660324
  N          -0.92542890831301     -0.96497554954674     -1.62341174115378
  C           1.75351318794294      1.23431981878902     -0.20097224031533
  C           0.73314964826099      1.46247416854055      0.60488802526718
  C          -0.68490394996449      1.42154698639806      0.11483166578349
  O          -1.31559947725485      0.17847007922247      0.46049727032802
  I           3.74479292804181      1.20419027387900      0.45774785584219
  H           1.64682801710922      1.04612242678851     -1.25682514505335
  H           0.86967747844197      1.62008228623021      1.66496102738044
  H          -0.72705154685101      1.58539406792302     -0.96740953626646
  H          -1.29521632895683      2.17341237878857      0.61809493576423
  H          -0.53631607757841     -1.20365244158554      2.23336478918622
  O          -1.96001276325895     -1.36067032240346     -2.09397965722317
  O           0.03231804688629     -0.56447008200266     -2.24625707499874
