17
Coordinates from ORCA-job NEB_reactant E -36.602196185440
  C           1.58190436083209      0.07010705026002     -0.04672085502898
  C           1.40382043908784      0.76138690856118     -1.18678666633686
  O           1.71903320935785      0.62329803910197      1.17971889713925
  H           1.62338487313258     -1.00798386498824     -0.13617902477875
  N           1.26442270361742     -0.00063710219938     -2.41136768124000
  C           4.08324719454084      3.96452703724530     -0.82259115313076
  C           3.31820702310413      2.96515301455454     -0.43137557762052
  C           1.81965228897459      3.01385839932852     -0.50113481192912
  O           1.29984411053282      2.08275262459976     -1.43894094938136
  I           6.17938510743944      3.91348102705139     -0.71378589295372
  H           3.69708981534500      4.89166939298481     -1.21093694860935
  H           3.74431627737783      2.04684534364171     -0.05396596732526
  H           1.47874853235367      3.98329242017794     -0.87005460338363
  H           1.39922025122444      2.82881978473580      0.49370765931803
  H           1.88615189897689     -0.05701569865573      1.84165137293448
  O           1.17520507199747      0.62066051583544     -3.44100856666948
  O           1.24636684210509     -1.21301489223505     -2.31932923100399
