21
Coordinates from ORCA-job NEB_reactant E -41.843938986310
  C           1.93201126503493      0.15322485267606     -0.21788122479485
  C           1.53622887848664      1.40941534040054     -0.42726457466924
  F           2.38063741129128     -0.32972968222798      0.95836493423386
  H           1.93970984492613     -0.60070675423321     -0.98724334601353
  C           1.07367925344493      1.77209051990340     -1.82631080599475
  C           4.12689677464234      3.52925216241147      1.90682685040553
  C           3.43782987361869      2.39852521753665      1.78946672484509
  C           1.94151214867991      2.39594260110795      1.73332176593979
  O           1.44663111640359      2.46861744914541      0.39082618125736
  O           5.46089421431890      3.69900106692538      1.94890092939338
  H           3.62956087866386      4.48609174107323      2.00030168511853
  H           3.92402433885370      1.44226932405467      1.68648476120648
  H           1.53628769538234      3.29737490504492      2.19731363268367
  H           1.53112542598188      1.51360041012593      2.23295861191389
  F          -0.17155230967169      2.29404782221139     -1.80382598736491
  F           1.87728524634723      2.71883060531374     -2.36299623486173
  H           1.06738155440110      0.90901748902506     -2.50891784736921
  C           6.27254752612644      2.55312932332254      1.82108649082219
  H           7.30098024897462      2.90563452467383      1.87009600034768
  H           6.10143638069735      2.05356477352465      0.86286386366574
  H           6.08749223339584      1.84580630798437      2.63502758923504
