21
Coordinates from ORCA-job NEB_product E -41.837923183630
  C           3.30002938566731      1.27588541309505     -0.14950728162590
  C           1.86159202653264      1.00055982937087     -0.50382223319825
  F           3.84480099610729      0.14003134884138      0.39509342581755
  H           3.89005353548555      1.51973980935935     -1.04200686896034
  C           1.20010477589192      2.07061046515490     -1.40806508932884
  C           3.39851108676447      2.47445767639580      0.86168506634458
  C           2.76894375406889      2.06141543145023      2.16403089247987
  C           1.72735012976077      2.68117140615390      2.68403841644208
  O           1.22311442274959      0.06712451060572     -0.11206110437822
  O           4.71330386322214      2.95720312642471      0.94314340548025
  H           2.84526915719275      3.31335123681249      0.42567134323933
  H           3.20599424650357      1.19712181413680      2.64289803447761
  H           1.27483545987400      3.53393531286753      2.20534916624449
  H           1.28363350683780      2.35598236219826      3.60905169578452
  F           0.66504240969017      3.04562721255067     -0.63476534090382
  F           2.09762994156160      2.67147154033048     -2.21894653416224
  H           0.39574749269607      1.63824318810892     -2.02169871874857
  C           5.63109843630610      2.23516271493954      1.74323111668094
  H           6.59314268745106      2.71498569261125      1.57365761423571
  H           5.69696405300021      1.18441992440636      1.45362058587290
  H           5.37533863263609      2.30769998418578      2.80440240820636
