21
Coordinates from ORCA-job NEB_reactant E -36.979300969660
  C           1.69557007936104      0.05494647125290     -0.20568322012726
  C           1.89027379057271     -0.44645857637850      1.01846687085819
  C           1.16799203070458     -0.73821836105278     -1.35118626254574
  H           1.95615716692353      1.08530140439384     -0.37501365631755
  O           2.34339236275840      0.36915353405495      2.00033737707992
  C           4.41999033611316     -3.49743845725202      2.27591162569863
  C           3.87618865605392     -2.59328792618227      1.48199077256960
  C           2.50240996938310     -2.73896729459370      0.89855102983320
  O           1.60888191710846     -1.73439026118118      1.38044390636148
  Br          6.14943673610126     -3.30501195673200      3.01496791998697
  H           3.93755501824986     -4.41965271240892      2.55929646971855
  H           4.40191004127437     -1.68239378157700      1.22752065552658
  H           2.04359191132435     -3.68317586928990      1.19922171712812
  H           2.57663322822155     -2.69854032221631     -0.19359624032497
  F           2.19471885965379     -1.32052032101536     -2.08836989267993
  H           0.62345541377923     -0.10172274255082     -2.05327723990746
  H           0.53249239777975     -1.56424568713800     -1.01556699894639
  C           2.33421060915451     -0.12464293033227      3.32730003515328
  H           2.65746069601911      0.70865858595544      3.94698760609739
  H           3.02531835339406     -0.96312453542390      3.44920895754636
  H           1.33106042606927     -0.44216826033220      3.62088856729102
