26
Coordinates from ORCA-job NEB_product E -48.350703789050
  C           2.73685603485330      1.05968370403948     -1.14096015900946
  C           1.71814672957614     -0.05211207214469     -1.08687286908271
  C           2.78678824678083      1.79711402624786      0.20035649106025
  H           3.71753178836906      0.61890494848134     -1.35546153550407
  C           1.82962123888807     -1.12882186541886     -2.19973611095127
  C           2.35836324693771      1.95185070850939     -2.35944551895868
  C           1.10937645302338      2.74751364549403     -2.10179031587603
  C          -0.06284192588444      2.44882695373223     -2.62765411626795
  O           0.82807184662116     -0.14658756222548     -0.28998716962399
  C           3.50363543702358      2.88698867953013     -2.76110822744192
  H           2.20417046469074      1.30195081079336     -3.22712388615662
  H           1.22502934774275      3.59137435516715     -1.43710694283451
  H          -0.19548044452497      1.60779899550584     -3.28836312880697
  H          -0.94206805698935      3.02952117629444     -2.41066648524083
  C           3.46156824782774      0.94220813758989      1.26733186512289
  H           1.76870456716925      2.03254131732506      0.51383551569910
  H           3.34056383962481      2.72756073449749      0.09156093799654
  H           2.90799354658204      0.02084771703367      1.43202161438134
  H           3.50375445822983      1.48612529928928      2.20716235785855
  H           4.47829092166595      0.69013848942967      0.97239497523745
  F           0.97359845874924     -0.82392288493175     -3.20794460315728
  F           3.06135937244213     -1.18501315754475     -2.75122759655161
  H           1.56510093051731     -2.12704022848410     -1.82007459470937
  F           3.74226584881730      3.85607488665149     -1.84610505949718
  F           4.66724889137549      2.20888191347305     -2.89694095304184
  H           3.29275050989096      3.38999127166479     -3.71819448464384
