20
Coordinates from ORCA-job NEB E -45.261754075460
  C          -0.74127287277461     -0.31264040328912     -0.00673229497950
  C           0.18133857731566     -1.34980049756307     -0.26463528718985
  I          -1.43082222434165      0.52371090834694     -2.11573287227487
  H          -1.69611537247285     -0.64347537075254      0.38584440011101
  C          -0.18304135829757     -2.79572876133701     -0.26212187708734
  C          -0.10755924418042      0.83734149414056      0.82278294613850
  C           1.22726344368914      1.15247857092895      0.25429572564459
  C           1.74162517576598      0.27242180295290     -0.80152993996686
  O           1.42462282323154     -1.08064377825044     -0.72689199360810
  C          -0.97355337295347      2.09994393236678      1.00093277964083
  H          -0.03338775183476      0.41997024313596      1.83935797417719
  H           1.49963125764264      2.19158849339132      0.15559023801645
  H           2.82087274259644      0.34279795606730     -0.94680393275994
  H           1.24099137430675      0.64862837362780     -1.73187064371506
  F          -0.35971512701233     -3.24564411765334      1.01619427119550
  F          -1.36633755226301     -3.02575508933007     -0.88062505517723
  H           0.59362796574822     -3.41504418279514     -0.73282985165328
  F          -0.93417607129985      2.91680838022306     -0.07380469453071
  F          -2.26847778723785      1.77188765803167      1.20162725379467
  H          -0.63551462562798      2.69115438775749      1.86695285422404
