20
Coordinates from ORCA-job NEB_product E -45.319038352700
  C           2.23497649377409      2.57778404803481     -0.48180658619161
  C           0.94022620115287      2.63522569045769     -1.23552509354115
  I           2.00550747931293      0.70225374878740      0.58880893946264
  H           3.09624450492705      2.44040619054077     -1.13615268931121
  C           0.85963804182938      1.76038730312868     -2.50599260954440
  C           2.43117314124040      3.73867264274860      0.48663006232571
  C           3.66049981461166      3.54232454353713      1.32991841049038
  C           3.63737192897622      3.48119788641865      2.64694261252986
  O          -0.00621949337021      3.29378202201376     -0.90284218234667
  C           2.56370947608366      5.03425489987937     -0.33057562771342
  H           1.54514887387297      3.84905473794081      1.12101217713595
  H           4.58701825772331      3.46298830288669      0.77765003996531
  H           2.72036509593290      3.56815978480787      3.20610497870246
  H           4.53686668714151      3.33975694860423      3.21918832224204
  F           0.69702793727954      2.57268919934753     -3.57207914137599
  F           1.99163944286937      1.05867072858684     -2.72025885189580
  H           0.00903110344620      1.06199006393579     -2.46869637870382
  F           2.81863499291566      6.07737599282398      0.48575399559304
  F           3.60980258574425      4.95171824951484     -1.18874646807718
  H           1.66403743453625      5.27510701600455     -0.91633390974612
