21
Coordinates from ORCA-job NEB E -33.175683971640
  C          -0.33126285904861      0.61544305915740     -0.23100256046772
  C          -0.02853765397837      0.55514728964523      1.15068102923102
  C           0.80134572425147      0.37729372092482     -1.20530236211973
  H          -0.97992964994178      1.43883885105190     -0.52743307107760
  C          -0.82127185534321      1.28056055018462      2.06621383941861
  C          -1.42200678509266     -0.90023752727621     -0.31383135487303
  C          -0.60146354850281     -1.93212266712241      0.15119449123815
  C          -0.10174625824900     -1.79818147892733      1.50321431797430
  O           0.68010337703386     -0.48334601155383      1.58593554253477
  Br         -2.07952354022075     -1.04151777317942     -2.11488993275923
  H          -2.23568894716706     -0.55702057740701      0.31672219436907
  H          -0.02569033872100     -2.50494238503514     -0.56001214344315
  H           0.62704884326743     -2.55083872584277      1.78969005709989
  H          -0.87818966037465     -1.69484083044856      2.26431793128982
  C           1.59132429830153      1.67119206716036     -1.38842362559987
  H           0.41813143836853      0.05716081304311     -2.17510126206067
  H           1.46146813410149     -0.39888189029756     -0.81361957835387
  H           0.96086397982158      2.45428017834946     -1.80368552981400
  H           2.42153203640541      1.50151778084957     -2.06922051775103
  H           1.98901098060951      2.01465597613387     -0.43594868455620
  N          -1.44551771552091      1.89583958058987      2.81050121972051
