21
Coordinates from ORCA-job NEB_product E -33.202055777600
  C           1.07362747687143     -1.33077514935194     -0.04691231774326
  C           2.08315511657549     -1.02847670305189      1.04623125097359
  C           1.31650316648540     -0.49193346176567     -1.31462975076595
  H           0.11093635542607     -0.99334070210694      0.37354757224188
  C           2.42456135805092      0.38556408268236      1.13654190738457
  C           0.90661015043458     -2.83561493214277     -0.29863104933854
  C           0.15966402437854     -3.51392567026974      0.80024308596728
  C          -0.95863411213718     -4.18829034847552      0.60811531852796
  O           2.53846886961856     -1.83069537862267      1.81594036940109
  Br          2.64893694452512     -3.77208925131718     -0.49088380750092
  H           0.40800780110311     -2.98974596464024     -1.25840405874107
  H           0.60890079759539     -3.43749848633686      1.78058891119635
  H          -1.47248287628110     -4.67171940422833      1.42019803506594
  H          -1.40610098731344     -4.28507386850662     -0.36823235523764
  C           2.67773404449657     -0.71022476389395     -1.96648376917014
  H           1.21740612149558      0.56271978927480     -1.04489558479746
  H           0.52667802441171     -0.71898884372985     -2.03483976339137
  H           3.48203940853215     -0.58582222240110     -1.24401215677228
  H           2.82020914589361      0.01959708452230     -2.75970701617630
  H           2.75891828136372     -1.70096315563603     -2.40356416400383
  N           2.69136088847378      1.49239734999785      1.25078934288009
