17
Coordinates from ORCA-job NEB_reactant E -26.278317307330
  C           1.88506573630184      0.01254982497447      0.08425633703438
  C           1.16305870232060      0.63819377598737      1.01151791064096
  N           2.15692143773508     -1.35462729724673      0.09036112923054
  H           2.23245568455925      0.55536895962173     -0.78036352046224
  H           0.90222436414408      1.68251436425446      0.92269813574595
  C          -0.14644620590230      0.04930944345235      5.42344721061841
  C          -0.50434225203046     -0.09921812942344      4.15653127348696
  C          -0.01330984027918      0.77486231230854      3.04853954596038
  O           0.70065464602838     -0.02695879313966      2.13085014197892
  O          -0.55985301901191     -0.71426904417838      6.45928509488425
  H           0.51395169019636      0.83690677028486      5.75689737002517
  H          -1.15807814658103     -0.90722806655790      3.85692052078266
  H           0.63421293831258      1.56887143327372      3.44882251341206
  H          -0.86687919777573      1.24905844764802      2.53661420699895
  H           3.08137285210353     -1.59557018333408     -0.23766534649398
  H           1.94603506857952     -1.77085255721857      0.98745019307231
  H          -1.13794445870060     -1.41781126070676      6.13683728308431
