33
Coordinates from ORCA-job P E -37.172675764550
  C          -1.44865069946818      0.34454892542846     -2.23334657821563
  C          -0.10698143205921     -1.67114909916915     -0.93153781687480
  C          -1.53876081540750     -1.88881261695085     -1.28985985856202
  C          -2.18434121344651     -0.92942935745430     -1.93515136667282
  C          -0.81133046162050      0.79547982357423     -0.90523250246695
  C           0.08735942777328     -0.28280853992100     -0.26804141001819
  H          -2.00717655303027     -2.82269558901289     -1.01865013695597
  H          -3.21976077625593     -1.03577277310264     -2.21388030173643
  C          -2.30720034593629      1.42681857502586     -2.92829427640614
  H           0.26568864410544     -2.45344942295754     -0.26799355665282
  H          -0.62844432020449      0.10283329765317     -2.92371482199492
  H           0.48739636205687     -1.69800344946851     -1.85033955220805
  H          -1.61239454753131      1.03690000681017     -0.20721978997515
  H          -0.20273907324201     -0.38342323316786      0.78458950508309
  H          -0.21021185208594      1.69149231230189     -1.04421957541333
  N           1.47238665072723      0.16851936539916     -0.22906684955781
  C          -3.50996020088784      1.84178459342697     -2.07797789776659
  C          -1.45737483230151      2.66950579276743     -3.22017833553295
  C          -2.80150932452918      0.87396754994430     -4.27122104012892
  H          -3.18848002649202      2.32828980706366     -1.16074149334897
  H          -4.12259971612495      0.98384526545033     -1.81450286210607
  H          -4.12969352518403      2.54410465129532     -2.63184971081412
  H          -1.18232705399173      3.18636356539437     -2.30486987987239
  H          -2.01911043261056      3.36571584204533     -3.83958564734489
  H          -0.54838327313041      2.39957822544094     -3.75431816354889
  H          -3.43279132875718      0.00053569627123     -4.13541612389753
  H          -1.95943483554070      0.58938430734942     -4.89905359126009
  H          -3.38006487809714      1.62908786670882     -4.79934415553660
  C           2.15851264348502      0.32729670289826     -1.49516821354554
  H           2.01251043229895     -0.45042225536808      0.36719161311065
  H           1.57592818172355      0.97826848270212     -2.14385305720169
  H           2.35362004153488     -0.61312144766635     -2.03178523120638
  H           3.11726913423017      0.80806712928773     -1.30056732137108
