18
Coordinates from ORCA-job NEB E -39.113250026450
  C           0.19026204092149      0.19504469266242     -1.32648262233849
  C           1.26801655436827      0.87077585575076     -0.74451867027384
  H           0.41185693687347     -0.58857446650512     -2.03979921738513
  H          -0.69520655911276      0.77101297036881     -1.55680757258405
  C           2.56642772942589      0.30856698097322     -0.80629935361338
  C          -0.49040282206686     -0.66252066913775      0.25846967291909
  C          -0.65663670967701      0.39698620351785      1.14690185584339
  C           0.52540442790677      1.16293574176231      1.49245212394579
  O           1.00672191155261      1.78484355348050      0.18801983989656
  C          -1.73237321760879     -1.38041034764071     -0.20954115682993
  H           0.32757868526825     -1.35984947211129      0.41309771783528
  H          -1.61074060237125      0.90395935960528      1.16997032236965
  H           1.36313224742307      0.56759850018667      1.86093475173660
  H           0.33981988156958      2.02012036267347      2.13239912304675
  N           3.63252295891520     -0.10923118283882     -0.89622053401581
  F          -1.48400153705264     -2.21507175379249     -1.22809882410607
  F          -2.27111091533608     -2.12486328126001      0.76895341362524
  F          -2.69127101099919     -0.54132304769510     -0.62343087007164
