18
Coordinates from ORCA-job NEB_product E -39.148618963180
  C           0.85131214223074     -1.81064083505327      0.98113602880577
  C           2.16402868467035     -2.52261094831857      1.24416393455789
  H           0.45832210713610     -2.09572172851308      0.00179439407012
  H           1.07615312410310     -0.73934916205618      0.94299459967585
  C           2.98648147480289     -2.59782380269832      0.04612248572267
  C          -0.17062095461671     -2.07686054507116      2.09500704753887
  C          -1.18456631415825     -0.97188073460419      2.20810993967664
  C          -1.41818205301949     -0.31039392816360      3.32450788631352
  O           2.51651202673141     -2.94779973977725      2.30964629798306
  C          -0.89678752557225     -3.38825885545641      1.80353085796475
  H           0.35634501741261     -2.21159761349120      3.04684962812139
  H          -1.72996743345472     -0.75441067629758      1.30009476524844
  H          -0.88598569653916     -0.52523966980062      4.23624278168521
  H          -2.15340478161651      0.47336210281953      3.37102114667461
  N           3.61547371132187     -2.64063919007270     -0.90826541387350
  F          -0.05212900196348     -4.41421890728745      1.61969707871255
  F          -1.72275800812611     -3.73802682415739      2.79469388386239
  F          -1.64092651934237     -3.31628894200059      0.68665265725980
