18
Coordinates from ORCA-job NEB E -38.542208575140
  C           0.41756789406841      1.06173690696866      0.04131619620646
  C          -0.91249342327120      1.29381745122552      0.45325540444242
  C           0.73269501910368      1.00845428227755     -1.43326058615320
  H           1.17507894690798      1.65440823715454      0.54986605741303
  H          -1.05697417735468      1.83095170723922      1.39604530030137
  C           0.59384194738201     -0.69859471762419      0.79707953214241
  C          -0.44674929657240     -1.42311465288032      0.18637387367157
  C          -1.77441833544876     -1.01086661918809      0.46036012640583
  O          -1.88161503879605      0.57262514319527      0.01230497675548
  C           1.93003412835372     -1.17213962070316      0.63729327936017
  H           0.43398685823507     -0.38695515118892      1.82864058906444
  H          -0.23442396809534     -1.97879427797177     -0.71315962297036
  H          -2.04973349910874     -0.89898113121876      1.50537976830883
  H          -2.55672942780422     -1.46958688097144     -0.13099498865611
  Cl         -0.38978440151767      0.08046691374889     -2.42230679521772
  Cl          0.64865320637015      2.71831858092973     -2.00466689814904
  Cl          2.39021022900968      0.44059383871491     -1.75906925591428
  N           2.98085333853836     -1.62234000970764      0.59554304298870
