18
Coordinates from ORCA-job NEB_reactant E -38.584482924930
  C           1.74682374246734      0.04854698331126      0.07323455249334
  C           1.19698234450475     -0.17071295576747      1.27471697619623
  C           1.92215859503486     -0.80957795052016     -1.12304167660420
  H           2.13234066302811      1.04564856735879     -0.07153655156414
  H           1.19901471409771      0.67640185525123      1.95394836344813
  C           1.77645211126897     -4.63113468532925      1.47422047456934
  C           1.68319179061419     -3.32911136873405      1.73893818682569
  C           0.49177029000063     -2.49441461402892      1.38283368847155
  O           0.59580398173118     -1.17789742415900      1.90038961632173
  C           2.90856100865124     -5.38940669666103      1.82628361214831
  H           0.98970942210171     -5.17041492889962      0.96282698028081
  H           2.48407947267975     -2.81392658235997      2.25174128414086
  H          -0.40338205602887     -2.90739586763930      1.86377666134401
  H           0.32132362979850     -2.49122738537985      0.30260629928835
  Cl          2.90632083629889     -2.28076830152788     -0.80986359395307
  Cl          0.35045045282727     -1.33570753625634     -1.83122953775213
  Cl          2.76328917380091      0.10848636783648     -2.39542148560942
  N           3.82450982712288     -6.01868747649492      2.10857614995463
