18
Coordinates from ORCA-job NEB_product E -38.587058573080
  C           2.30722538899288     -1.30198914371668      0.94523901911445
  C           1.22443271409273     -0.41932924942686      1.56229633671038
  C           2.48276069569668     -0.96181159579777     -0.53164483853636
  H           3.24344570620098     -1.03275271478922      1.45583386601616
  H           1.18747978136726      0.59590459601408      1.13573116256304
  C           2.01314005788193     -2.79280049479604      1.25388187512957
  C           0.98840376946018     -3.43168986030512      0.34914781743195
  C          -0.26490051236673     -3.61943949394119      0.71477638699830
  O           0.50261815268935     -0.76797664906852      2.44543319264416
  C           3.23147657823815     -3.57230731221284      1.23782144347725
  H           1.62589188697932     -2.80765642468806      2.28260770850757
  H           1.34640088280942     -3.75515679374096     -0.61760498451730
  H          -0.63139465132996     -3.30584617209261      1.67843545428771
  H          -0.97864271978017     -4.08092713054866      0.05476625124968
  Cl          3.56634452319226     -2.10493820214484     -1.35511620958903
  Cl          0.90757533549724     -0.94133290139198     -1.36433183587615
  Cl          3.19640643705829      0.67148218621712     -0.67952822700630
  N           4.17933597332018     -4.20993264356984      1.24855558139492
