17
Coordinates from ORCA-job NEB_reactant E -38.105397364650
  C           1.67550164060182     -0.06560320986289     -0.23747707615378
  C           1.65983243189893     -1.06431936958008     -1.12249515512929
  Cl          2.08100027268039      1.58197146628962     -0.53046480754251
  H           1.40253718137329     -0.24399396335670      0.78812690388858
  C           1.26978994102723     -2.46470258293577     -0.69738124683915
  C           2.79779858045933      0.20214360632557     -5.55938290438547
  C           2.98987706390979     -0.48950161258548     -4.45330508164237
  C           2.59432977477289     -0.01534030888480     -3.08841425217123
  O           1.96485255405386     -1.11276480862784     -2.43165611222869
  H           3.11560564031318     -0.16588638032627     -6.51901541439425
  H           2.32613027655210      1.17099010523365     -5.54934776844783
  H           3.45717127189156     -1.46344186499530     -4.46982139719818
  H           1.91064905154028      0.83643057766438     -3.15631551848379
  H           3.48973525710447      0.28268796421559     -2.52750692277654
  Cl          2.71847565381273     -3.50149380447147     -0.80640345854218
  Cl          0.63070699040360     -2.58004905243917      0.93868553759260
  Cl          0.04180641760458     -3.09262676166303     -1.81982532554589
