17
Coordinates from ORCA-job NEB_product E -38.118905851830
  C           2.09696767820335     -0.93596593649464     -1.94488879114120
  C           0.79489111828587     -1.69893718394749     -1.96467818487048
  Cl          1.71496805822997      0.41928767858365     -0.82497446738750
  H           2.90834924245183     -1.50397035654456     -1.48821298324625
  C           0.72790587125347     -2.88554779468866     -0.98533533998060
  C           2.47440773064793     -0.39494302269055     -3.31921359021858
  C           3.70483329811850      0.45605628080417     -3.24536971520269
  C           3.74423189107944      1.72667971029712     -3.59533773197379
  O          -0.12415364146490     -1.45004140011339     -2.68535942360279
  H           2.65624211427916     -1.25571690717716     -3.97003708319009
  H           1.63628812538714      0.17345740331542     -3.72402858487849
  H           4.58873381316786     -0.04140127807979     -2.86889495099517
  H           2.87304510949795      2.23931797166067     -3.96798767272823
  H           4.64801732992281      2.30685222053755     -3.52802271472835
  Cl          1.75339839457406     -4.12381613583905     -1.77187652722676
  Cl          1.38270185963295     -2.51278233985379      0.61127545707053
  Cl         -0.92022799326739     -3.49182890976950     -0.83555769569954
