24
Coordinates from ORCA-job NEB E -41.212979015550
  C           0.39877663593420      0.70476453927911      0.99886321358294
  C          -0.72828642941747     -0.14962834827634      0.91102042117606
  C           0.14617610677630      2.10098084389888      1.12360745094075
  H           1.22494158292921      0.36963505153165      1.62113123333187
  C          -0.65871805650532     -1.54330076335717      1.48559054766712
  C           0.99535460799245      0.56550794993262     -0.81474248257562
  C          -0.09179709575918      1.08810821898882     -1.52556231079579
  C          -1.32321233741788      0.37612705777138     -1.42572637851651
  O          -1.71040812453524      0.17813580418386      0.12999174728196
  C           2.33059472965007      1.26797912571627     -0.88713776048197
  H           1.14699865134516     -0.51112154546108     -0.83761539932709
  H          -0.12518153809866      2.15699477950109     -1.67746206774982
  H          -1.29399611240477     -0.66789948372227     -1.72852633950844
  H          -2.19412915119290      0.88687080207981     -1.81949690892307
  N          -0.10835772580257      3.20722216890685      1.26429507212554
  C          -1.23902767609988     -2.60205443301144      0.55076309721893
  H          -1.23351574511802     -1.54516858235699      2.41765537510081
  H           0.37595777747050     -1.78033531960307      1.74250531721482
  H          -2.24381763045885     -2.32020686409703      0.24599412631119
  H          -1.28595882259560     -3.56204225255999      1.05774652648315
  H          -0.62093828736245     -2.71614711918514     -0.33767168947580
  F           2.24372222246815      2.59918158762657     -0.70367234889173
  F           3.17437768931554      0.79904883916012      0.07023730588352
  H           2.82044472888722      1.09734794305350     -1.86178774807281
