24
Coordinates from ORCA-job NEB_product E -41.261346248610
  C           3.09940767509064     -0.24950714832340     -2.16191000098663
  C           1.88704191561853     -1.18610568526254     -2.35601486669122
  C           3.15899708526892      0.24485465989901     -0.80820698826701
  H           3.99362763843586     -0.86565566700634     -2.33576507063816
  C           1.63222452518598     -2.11664801240447     -1.20159798860927
  C           3.07134713784238      0.89887582096390     -3.19822636217395
  C           2.13275234271752      1.99441497273302     -2.77408340236627
  C           0.96350322142294      2.20701723926530     -3.34544106496379
  O           1.23770026531905     -1.15972800394191     -3.36430062741998
  C           4.47552377814723      1.45692089412976     -3.42152173954058
  H           2.73473728355317      0.46834165506907     -4.14821220734626
  H           2.47036399818872      2.59262264392564     -1.93830124746017
  H           0.61576707781845      1.60132960709711     -4.16587783080247
  H           0.30331197167891      2.98584514318706     -3.00600385626672
  N           3.19227417098193      0.62545633845275      0.26873183624743
  C           0.59762632924490     -3.18198764462444     -1.54022867562285
  H           1.28489348569131     -1.50321497464053     -0.36420357002607
  H           2.57568037624916     -2.57159053444376     -0.88998931162366
  H          -0.33238762665232     -2.71486624923098     -1.85313420004351
  H           0.40350317934415     -3.80846797713528     -0.67417781483825
  H           0.95224012660200     -3.80874687349766     -2.35469593218140
  F           5.03592902166047      1.89506417994477     -2.27106383280999
  F           5.30350568674431      0.48841645861183     -3.89361613422861
  H           4.48712933384580      2.28955915723206     -4.14115911134058
