24
Coordinates from ORCA-job NEB_reactant E -41.256858285240
  C           1.80494974638917      0.02163727363132     -0.86819103259022
  C           1.73918792591524     -1.06940649478814     -1.65505561772710
  C           1.93047879573185      1.36471576285921     -1.23522603001531
  H           1.74787903077893     -0.12784552326883      0.20168181905418
  C           1.54604135227683     -2.43497861740651     -1.05162822269656
  C           3.69981231851833      1.77580906849211     -3.94722409611559
  C           3.36055113781425      0.51240138742548     -3.76277309104539
  C           1.94790150728140      0.01128695733505     -3.78976359292450
  O           1.77183451663482     -1.14662396831308     -2.99627000200201
  C           5.11357639571468      2.26561787744661     -3.92570115147239
  H           2.97008721447243      2.55191014277136     -4.11952605179946
  H           4.11360271112688     -0.24446322563537     -3.58760673386163
  H           1.70353688130627     -0.32232939371934     -4.80536010294826
  H           1.24456227424388      0.79922432958142     -3.49991132249763
  N           2.03427869003764      2.48783557712029     -1.46107708224818
  C           0.05624935928498     -2.73579089271819     -0.87350219801428
  H           2.05098774135686     -2.49052450166356     -0.08702067439310
  H           1.98463786838845     -3.17276854527551     -1.72440949505472
  H          -0.40313663334112     -2.01118744519526     -0.20504373191985
  H          -0.07584484868748     -3.72913100724072     -0.45287903504619
  H          -0.45395298581520     -2.69485012338813     -1.83258615942547
  F           6.00674920100176      1.26206282673563     -3.75327405737028
  F           5.43877186619576      2.85797278402308     -5.10670980060554
  H           5.28385793337341      3.00962575119104     -3.12914253728052
