18
Coordinates from ORCA-job NEB_reactant E -30.238140525520
  C           1.97961152930104      0.00044233205348      0.19975777399883
  C           1.51667861217376     -1.24080818444433      0.31387038902765
  O           1.76433851641923      0.75844781054485     -0.91847747545959
  H           2.55021917542024      0.42163598165463      1.01402514433658
  F           1.72859258160500     -1.87977841798711      1.50370674463550
  C          -1.10683400128266     -4.70034861603284     -1.42582236231429
  C          -0.83090299215368     -3.40871634228231     -1.36398782390755
  C          -0.23814348375072     -2.73132391383381     -0.17153486988659
  O           0.89194420426338     -1.96670926755283     -0.61250666651704
  C          -1.71676093498394     -5.37981624860340     -2.60413474578890
  H          -0.90270065262952     -5.33797051131206     -0.57457870813525
  H          -1.01728608822771     -2.75694022275344     -2.20538423942313
  H           0.07518536704082     -3.46370951276564      0.58190418726141
  H          -0.97353567986870     -2.04976990082003      0.28209620403007
  H           2.35361834265076      1.51870553718146     -0.90963398008911
  H          -1.88546294805169     -4.67768795342075     -3.41605836154667
  H          -2.66728309256429     -5.83407766968276     -2.32536073932618
  H          -1.06267845536132     -6.17697489994309     -2.95558047089574
