21
Coordinates from ORCA-job NEB_reactant E -54.435949220950
  C           2.38484185018512      0.59559615261020      0.03228421813105
  C           1.57575065098981      1.60032577224058     -0.34119155947960
  C           2.71024804585184      0.21647611944059      1.34333861697401
  H           2.85506493767690     -0.01028927537686     -0.72821312505765
  C           1.34613661093152      1.93667287701114     -1.79850101299607
  C           3.25466299892313      3.52604832961396      1.59074161912546
  C           2.35132825251757      2.90236065302116      2.32887837217959
  C           1.01722988225559      2.44941410738163      1.82251685569527
  O           0.89006876238931      2.47417531737798      0.41376778523575
  C           4.57994598583427      3.96487401946280      2.12700824976226
  H           3.11357876069912      3.76257735726728      0.54625843717401
  H           2.53644383939285      2.69002693208958      3.37228393545087
  H           0.24520119723456      3.14183563815035      2.17704831795041
  H           0.78915075307286      1.45147374864447      2.21419990962848
  N           3.01267684849846     -0.14802464934514      2.38902813660309
  Cl          1.87886495094698      0.67882373625175     -2.91442889507719
  Cl         -0.38284653283331      2.24647444574914     -2.08096120498251
  Cl          2.25949034772875      3.43678616806933     -2.15594826903140
  F           5.59551452928081      3.33460176614104      1.51085158096994
  F           4.78271349592059      5.27968881023706      1.93102084068679
  F           4.72733383250329      3.74598197396195      3.43791719105742
