21
Coordinates from ORCA-job NEB_product E -54.434439280000
  C           2.85766380935125      1.91211524739625      0.23603416371062
  C           1.50060871538558      1.88850235048381     -0.45710049719842
  C           3.10104876541148      0.57224217992849      0.74055691738819
  H           3.64087314492594      2.14898941224812     -0.49384544465434
  C           1.56507764077391      1.46820075208260     -1.93513841819596
  C           2.85275970365957      2.95340001626311      1.37980762226446
  C           2.02768644142173      2.52678458436681      2.56479785223138
  C           1.06748656336220      3.26780661460985      3.08106305492450
  O           0.47341146511229      2.20110756928905      0.05783038264001
  C           4.28988398030292      3.21438736591062      1.83535945510242
  H           2.47677563477635      3.90394037988404      0.98494245298636
  H           2.29140488141047      1.56652905417510      2.98570765076963
  H           0.79854835994723      4.22525671158337      2.66747255398076
  H           0.50511681375634      2.93698436131965      3.93550518899643
  N           3.28968682502395     -0.47623844591220      1.14809917775159
  Cl          2.65102955239873      0.09130380344209     -2.20082583411913
  Cl         -0.04464125150190      1.10182637579378     -2.55222521792308
  Cl          2.21589498014227      2.91629020699508     -2.76617448336489
  F           5.07677454983264      3.58902201778516      0.81031578694312
  F           4.34231981959328      4.20234750499094      2.73470507797713
  F           4.87068960491378      2.14720193736428      2.38951255778925
