26
Coordinates from ORCA-job NEB_reactant E -56.245139166810
  C           1.86930760956810      0.27584086881653      0.16141467461896
  C           1.35339171562414      1.48328238407270     -0.05051739200578
  C           1.98176360754793     -0.57029547454708      1.38884985767594
  H           2.31078878899869     -0.19399308436375     -0.70753980543620
  C           1.39613637920551      2.08659557479236     -1.44559398730384
  C           2.46044597477585      1.94306989636904      3.90007989117744
  C           2.13976920213349      2.39260539780799      2.69666529489209
  C           0.75154612746107      2.35216868115490      2.13537967743185
  O           0.72085035099619      2.41148859969371      0.72787160208256
  C           3.81563478981713      1.99055328232458      4.50543394414239
  H           1.71624127790844      1.51017985848507      4.55473587741997
  H           2.88125498270165      2.83443072351953      2.04615806746205
  H           0.21928095989025      3.26306066927759      2.43625056744159
  H           0.18497041401461      1.49018347427073      2.50824102946045
  C           3.44885877713507     -0.90044752017536      1.66737187513322
  H           1.44240712006193     -1.50245845458864      1.19701046471836
  H           1.54356200765800     -0.10494032251262      2.26635960300552
  H           3.89256904478889     -1.41507757138964      0.81898189109280
  H           3.52911386924569     -1.53981634409878      2.54224957672376
  H           4.01437801145999      0.00917909744033      1.85284481959981
  F           0.17476110589793      2.40635943314860     -1.89268561376469
  F           2.12020941605717      3.21704921945846     -1.46701314094543
  F           1.93618452416375      1.27605166115392     -2.36441489749795
  Cl          5.08072176866144      2.51047661582881      3.38422598613777
  Cl          3.79847674727443      3.11833367627260      5.89889145640685
  Cl          4.24437542695268      0.36681965778842      5.11774868033049
