26
Coordinates from ORCA-job NEB_product E -56.249390304690
  C           2.69594940609310      1.00695861858702      1.39553162888567
  C           1.73742717353696      1.33567877105040      0.27749624379113
  C           2.58599206637309     -0.49037986561628      1.71154292958189
  H           3.71723273831865      1.24427411225626      1.08462651188283
  C           2.32920423230666      2.31917458817741     -0.78075271895478
  C           2.30507342877323      1.96068320282670      2.56766758324782
  C           1.17557321056576      1.40008188191223      3.38543140053506
  C          -0.06652627158469      1.83406714445855      3.29133920846662
  O           0.61425928138251      0.94510851087073      0.16767714787958
  C           3.49974120306837      2.31488968051888      3.45688716861181
  H           1.98100888076450      2.91532333599312      2.13530223918786
  H           1.43790523372919      0.60060241543348      4.06161304228476
  H          -0.34626584866544      2.63101681437596      2.62255357188858
  H          -0.85854894611095      1.40266447265171      3.87737264333445
  C           3.17471444208287     -1.31745646036100      0.57394869400063
  H           1.53422287755201     -0.74540927198999      1.84686666164833
  H           3.12186614377829     -0.71219556610419      2.63171142609287
  H           2.63506815767080     -1.14300842920273     -0.35440657856332
  H           3.11031999085566     -2.37572259816966      0.81130031912094
  H           4.22075166212904     -1.06471214520882      0.41557676223204
  F           1.48175902144958      2.57093499799521     -1.77387518974855
  F           2.65063384757077      3.49555922868219     -0.21615118426941
  F           3.45367275941354      1.82681862017016     -1.32023390722733
  Cl          4.78423729187268      3.11268258783870      2.51132339190457
  Cl          2.94743514731206      3.46083357061758      4.70904741288712
  Cl          4.20649286976176      0.91573178223638      4.27700359129882
