22
Coordinates from ORCA-job NEB_reactant E -33.701874369190
  C           1.61197424750144      0.08125869766270     -0.12307682765160
  C           1.28880640326390     -0.67703131750923     -1.16516730801026
  C           2.13807514407243      1.48433715821166     -0.08790281491572
  H           1.51852369250053     -0.40762197648988      0.83452731789102
  O           0.92228058130967     -1.97357973766039     -0.97108238579037
  C           2.06378364932107      3.04218766816632     -3.55075730260929
  C           2.09255567072743      1.72333756265578     -3.36036495587887
  C           0.90305420335986      0.91615650525116     -2.94028720726463
  O           1.24814599412964     -0.38191876918749     -2.50723285389384
  C           3.19023661854427      3.76578404977773     -3.98493043578486
  H           1.17032846045600      3.62741707872063     -3.37381208108504
  H           2.99470903984426      1.15644480647159     -3.54836663782863
  H           0.26141193000437      0.76482100332920     -3.82135949647947
  H           0.31502870591986      1.43701418840002     -2.17645604474191
  C           3.21140641858208      1.62402951619100      0.98925144522463
  H           1.32690899454281      2.18794234210119      0.13396318435929
  H           2.56943148083799      1.76058400582845     -1.05114387911824
  H           2.80012147543209      1.39495393455134      1.96942227115513
  H           3.60067465956295      2.63946488177713      1.00541226257681
  H           4.03405047797991      0.94065954040694      0.79336815557810
  H           0.74760039337096     -2.36677423058340     -1.83574439949766
  N           4.10189175873648      4.36753309192756     -4.33366000623458
