22
Coordinates from ORCA-job NEB_product E -33.737615590620
  C           2.43559869780112      0.46782706629529     -1.55171597682856
  C           1.41339247706006     -0.58482693436182     -1.94601798613969
  C           2.22141931180012      0.91530974989645     -0.09867051126111
  H           3.41406085267976     -0.02730262420254     -1.61427584006563
  O           1.30571066454238     -1.55190785739789     -1.02998108935125
  C           2.39744735233181      1.61822864772778     -2.58936930006869
  C           1.31603606444099      2.63228780466186     -2.30891658245889
  C           0.14664479392451      2.62057517634841     -2.91845797729161
  O           0.78220684342527     -0.59713583897108     -2.96825956414669
  C           3.67885530285958      2.27680960566299     -2.66741379057356
  H           2.20202811750752      1.16047105533836     -3.56818015178182
  H           1.55445991109907      3.38862799120220     -1.57325508941493
  H          -0.10085050565367      1.87164033482551     -3.65222561930243
  H          -0.61407293676771      3.34940428450682     -2.69579152979140
  C           3.36031778673699      1.78154526366496      0.42379701044354
  H           2.14513569574249      0.02001509411069      0.52055395027937
  H           1.27493259852855      1.45525434621091     -0.02533822271358
  H           4.30701588291322      1.24993616849283      0.35776379786420
  H           3.18177692431995      2.03595724673496      1.46584929926534
  H           3.45401839876303      2.70526378702412     -0.14086839222106
  H           0.66238169203224     -2.21867214619767     -1.31911821272267
  N           4.68798407391273      2.80849177842686     -2.74890822171889
