24
Coordinates from ORCA-job NEB E -45.000949671040
  C           0.67038417477180      0.36496660787759      0.69858502159111
  C          -0.70838381111671      0.06963741143220      0.81595768720075
  C           1.09637269020003      1.79273531453967      0.88465936660583
  H           1.36793629115586     -0.29263778423553      1.20746412869474
  C          -1.14536870667832     -1.23436175004550      1.44568249230765
  C           0.96323511083389      0.01576521226846     -1.22580796683379
  C           0.05702153222778      0.94043126458617     -1.77417480334203
  C          -1.31098219828699      0.75920365993858     -1.54173735297079
  O          -1.55944060159692      0.78698394786620      0.19117357336675
  O           2.29617370009396      0.08125621708508     -1.43336081603685
  H           0.66545625698610     -1.02705705216749     -1.19776165819444
  H           0.42014809228694      1.93474710225623     -1.99726507701260
  H          -1.72391052351790     -0.23247563704798     -1.67296058637493
  H          -1.97722846080864      1.55289157214060     -1.84570266162189
  F           2.30809039280370      2.07494830507186      0.35459245597002
  F           0.26988640026608      2.71812686235207      0.39858708302366
  F           1.22413451799850      2.05949540265801      2.20315050572696
  C          -0.70800109241016     -2.47796759161868      0.66927812997757
  H          -2.23382202249206     -1.21425621804770      1.51553946370436
  H          -0.73626383158394     -1.28279424235870      2.45691514915203
  H          -1.11953973257101     -2.47095648315376     -0.33728821163133
  H          -1.07218595520882     -3.36784191730487      1.17667778319478
  H           0.37555531358167     -2.54116233908540      0.60880131877417
  H           2.58073246306515      0.99032213499289     -1.60100502527174
