24
Coordinates from ORCA-job NEB_product E -45.037212497530
  C           2.10941885006858     -0.82400623826897     -1.86045508380781
  C           0.73365086698560     -1.52462680261818     -1.83069600755503
  C           1.95495715615087      0.53098008436418     -1.18991026193338
  H           2.85031653065787     -1.39362785895261     -1.29473490029121
  C           0.62664257282641     -2.66519143423225     -0.85831682000378
  C           2.57715544171127     -0.68893539437784     -3.32481767842473
  C           3.77591706012890      0.20925974660661     -3.45190712272847
  C           3.75427514558556      1.37187641263256     -4.07476461176860
  O          -0.15121470243606     -1.16722663526347     -2.55619695679105
  O           2.87833854179183     -2.01104710137141     -3.73338246506374
  H           1.73716725877058     -0.28515029344003     -3.91083620088144
  H           4.68174952192314     -0.17797121132722     -3.00582279173878
  H           2.85085411723232      1.76018288542225     -4.51564021119729
  H           4.63207410140787      1.98936834575150     -4.15047495748552
  F           3.13694564401758      1.09192756205518     -0.88319654055788
  F           1.29022496630530      1.42105735680168     -1.92712472141417
  F           1.29529587016260      0.42459853712167     -0.02151987176876
  C           1.27007639474310     -3.91018713479330     -1.47806483560936
  H          -0.42792115692547     -2.85850370146035     -0.65875533096973
  H           1.12913142341312     -2.40598224795768      0.07462321210157
  H           0.71392397928499     -4.21460464985590     -2.36048618686456
  H           1.26214392499057     -4.72568792843068     -0.76002045730559
  H           2.29517386750044     -3.71142290067430     -1.77896486035481
  H           3.14910262370303     -1.99417939773142     -4.65723433758587
