23
Coordinates from ORCA-job NEB_product E -31.873659479080
  C           2.50919153843468     -1.66047108192041     -0.27849406565514
  C           1.29475280359301     -2.24934905514982      0.43863069417621
  C           2.05685286101651     -0.36191933998804     -0.95739350374060
  H           3.27920773685148     -1.42585221638370      0.46359836179078
  C           1.25476060938345     -1.99110352858756      1.92641855166875
  C           3.12438850445928     -2.59585974185902     -1.32350762726167
  C           2.22927127342970     -2.98450887210742     -2.44453612511348
  C           2.54957591960714     -2.80509107707644     -3.71333168213858
  O           0.42135911377877     -2.84440763448324     -0.13685551669544
  Br          3.72948466828603     -4.25429539934275     -0.40265978995892
  H           4.04912354614210     -2.15326621234967     -1.70551863853604
  H           1.29344043888548     -3.44183246173034     -2.15831317358550
  H           1.88772841285023     -3.09916924237961     -4.50897071683435
  H           3.48446133462608     -2.35546434916067     -4.01002263219933
  H           1.26921140133615     -0.57073376927486     -1.67791201190510
  H           2.89160637346036      0.10339981593634     -1.47757283640615
  H           1.67544850312367      0.33781116960970     -0.21709244959891
  C           2.15689783227915     -2.98567329066176      2.66211309977161
  H           0.22645258444387     -2.11526241196382      2.26951820744778
  H           1.58354756693214     -0.97077021308877      2.13318125365798
  H           1.85459119102038     -4.00550040812979      2.43821301520893
  H           2.07986173506062     -2.82803646987415      3.73482420126040
  H           3.19748405099973     -2.86804421003419      2.37048338464677
