16
Coordinates from ORCA-job NEB_product E -33.280429675410
  C           2.05328343381788      1.77417204981765     -1.21681286483057
  C           2.33845067406755      0.97041996359730      0.03425240144332
  Cl          0.49526904623253      1.10070517368836     -1.83321673838470
  H           2.80371721914647      1.58477392262044     -1.99059906461414
  H           2.47074796986951     -0.10487269490899     -0.17722941988900
  C           1.91300870645358      3.26812830920117     -0.95674552301110
  C           3.19372430270423      3.85418596871684     -0.42802381408204
  C           3.25680027316338      4.59448738430004      0.66162886740614
  O           2.37590416148225      1.41699074949155      1.14032958254975
  N           1.63568066074728      3.96397375929594     -2.25417992888665
  H           1.07783283257230      3.48053716919062     -0.28405674694739
  H           4.06911371754599      3.64704513665919     -1.02814902626253
  H           2.38581973424654      4.80508973122378      1.25838169255539
  H           4.18886418941910      5.00516438073835      1.00708171575652
  O           2.32456510484405      3.65626077146652     -3.19264258561369
  O           0.77591797368736      4.80243822490124     -2.24671854718932
