16
Coordinates from ORCA-job NEB_reactant E -33.279552015530
  C           1.37101416180897      0.40969587854120     -0.34127694656705
  C           2.32726182874174      1.30172437815968     -0.11429435779186
  Cl         -0.16688673515231      0.49161943596008      0.42160328513848
  H           1.50868109291233     -0.42168610136108     -1.00892944219455
  H           3.28186776485701      1.21673946694926     -0.62185868328320
  C           2.05348845397135      4.22113189366400     -1.35612411930122
  C           3.02365367692422      4.26557322783153     -0.45133518270779
  C           3.16072990640675      3.33443096676844      0.70795882987886
  O           2.18420415489751      2.32938314791581      0.76443455218930
  N           2.01160865681231      5.16178311882782     -2.43813643242090
  H           1.23819225326193      3.51411501434098     -1.36097537467196
  H           3.78740824189269      5.02904439403167     -0.53614329259776
  H           3.05362627261035      3.90783533708981      1.63616463982349
  H           4.17378989548515      2.90165684834317      0.69585966023141
  O           2.89483086636197      5.98847362058016     -2.51502815030567
  O           1.08512950820802      5.05707937235747     -3.21061898541957
