24
Coordinates from ORCA-job NEB_reactant E -32.341339362960
  C           1.92326344574192      0.08832082267390      0.12069989411879
  C           1.56624409043917      1.28349834923293      0.57827517338095
  C           1.89652031084115     -1.18171152125535      0.90832249875533
  H           2.24955300088825      0.00381081950898     -0.90586234711042
  C           1.56354555376366      2.52995872240483     -0.25729914647473
  C           4.15780442427672      2.93137074107827      2.39583005816147
  C           2.87916932881358      2.88178685527240      2.74559662961095
  C           2.11919452052838      1.59693500407146      2.86375961468109
  O           1.10563712463125      1.46126551590363      1.87613161816752
  O           4.82866278035887      4.10454007515262      2.24895364316499
  H           4.73076792014463      2.02615114655279      2.21578885163409
  H           2.32706768629600      3.79446450402392      2.90700906204260
  H           1.57538390271327      1.56414333828129      3.81283681863740
  H           2.81408858833145      0.74785585627148      2.81557320053938
  H           1.37326903342330     -1.03725170258840      1.84982536213731
  H           2.90973562345388     -1.53150409584817      1.11289937787870
  H           1.38771758127482     -1.95954559350942      0.34045477148463
  H           2.26170870355082      3.25763794712695      0.15565153610152
  H           0.57005113902167      2.97493355831901     -0.23595854557386
  H           1.83693996675752      2.30954998178118     -1.28473269192954
  C           6.20134112066394      3.99049966834995      1.95992096367448
  H           6.57538146580456      5.00598564018353      1.84355463787897
  H           6.74112589028773      3.49735384625563      2.77559449283143
  H           6.36942679799345      3.43345052075660      1.03177452620694
