16
Coordinates from ORCA-job NEB E -31.535668215330
  C          -0.52649789853910      1.51460270167881     -0.89453367744820
  C           0.19211360431709      1.49631353599376      0.31821359431766
  C           0.21396953720649      1.13322432268406     -2.00129949272668
  H          -1.22368111971619      2.31741435777115     -1.07434118829252
  O           1.14158199011332      2.34496283083917      0.61626265709792
  C           0.42423966779017     -2.06126475964622     -0.36495304304030
  C          -0.14969517151520     -1.77043729062637      0.79159020765965
  C          -0.90073830707806     -0.49344819205711      1.00162146687911
  O           0.02689991925222      0.57827241467437      1.24766812935724
  F           1.11681713601506     -3.19133908811656     -0.51985809033487
  H           0.40390500295862     -1.45848761025158     -1.26380598249399
  H          -0.04866668741576     -2.44382396053678      1.62906830074852
  H          -1.54515274381246     -0.54908318712864      1.87931391366438
  H          -1.46329016975336     -0.20424516473372      0.09781591010320
  N           0.73520156479434      0.64928255069390     -2.91254428581638
  H           1.60299367538283      2.13805653876178      1.44978158032527
