16
Coordinates from ORCA-job NEB_reactant E -31.610978731760
  C           1.77015790719898     -0.41918250976032     -0.05066857077350
  C           1.73278865074173     -0.44244680681283      1.29574133189781
  C           1.17803858847119     -1.31692874316397     -0.93675107414716
  H           2.30085250352415      0.40368907534796     -0.50599293430228
  O           2.33154560960829      0.54592152489827      1.97821742602314
  C           1.80759332660756     -4.27398312411180      0.33257341305863
  C           1.70701743693762     -3.55680275509383      1.43544472804389
  C           0.62149605047260     -2.55469102990210      1.68038483015860
  O           1.14894641912013     -1.31557194909803      2.13993180044861
  F           2.78371126247166     -5.17634416063296      0.18278883758851
  H           1.15402391568234     -4.22492748226766     -0.52587626481712
  H           2.42968227837269     -3.67839661915767      2.23001902138700
  H          -0.01059032577686     -2.88884679643331      2.51012880577810
  H           0.00381153046799     -2.41172531047060      0.79120041819509
  N           0.70754104734826     -2.02098101441045     -1.71551791297911
  H           2.21288379875169      0.39471770106932      2.92637614443980
