19
Coordinates from ORCA-job NEB E -40.616120450770
  C           0.60828711361997     -0.58475099383697      0.01385877704256
  C          -0.59392341580482     -0.75570939316172     -0.81160398656435
  C           0.42179135136046     -1.02692179518455      1.48359948346986
  H           1.42599002434503     -1.18213370464721     -0.40424229461911
  N          -0.66438732286314     -1.80150113199767     -1.77644130873677
  C           0.89916995327331      0.89695902610933      0.02593894990947
  C          -0.09344536851287      1.76604804392665      0.02973911939535
  C          -1.51239038095308      1.36030545627067     -0.26069618217038
  O          -1.60847404887623      0.07296128722739     -0.83798690128882
  Cl          3.42405202647213      1.93818781563201      1.17924540099976
  H           1.95462217738493      1.21779930214065      0.24472006469185
  H           0.04673243115826      2.81870555209300      0.20904508272536
  H          -1.96495678440350      2.02684188349596     -1.00652738814513
  H          -2.11737618614124      1.40879244007949      0.65110590959841
  F           0.37270443627999     -2.38325076952391      1.55061505114274
  H          -0.50715449314624     -0.64143607240794      1.91634159990962
  H           1.28732826338663     -0.69665614741826      2.06795907000868
  O          -1.76959517970365     -2.11433219220020     -2.17382225551651
  O           0.39102540312408     -2.31990860659672     -2.10084819185262
