19
Coordinates from ORCA-job NEB_reactant E -40.663646055990
  C           2.02295336176935      0.27054704703091     -0.27120793836500
  C           1.47435807089354      0.88149028556028     -1.32180090477236
  C           2.06033063889165      0.67528137544995      1.16407177612043
  H           2.51710892509930     -0.67084194374663     -0.47786673767418
  N           1.61634653490314      0.22313325888610     -2.63372417104384
  C           3.13346830834251      3.56377470635703     -1.16054633714562
  C           2.13597941905530      3.65939110467214     -0.29589164185946
  C           0.78816072661443      3.03143273242431     -0.51123700037829
  O           0.77627014991788      2.01664541002872     -1.49341781527144
  Cl          4.66490143754210      4.28270469781927     -0.88903819889734
  H           3.05918911553389      3.03492571646049     -2.09880527265049
  H           2.24074082251598      4.22705636747363      0.61658996825526
  H           0.08946375212155      3.78105040389719     -0.89947685050897
  H           0.39068622041951      2.65585573580240      0.43939864998122
  F           2.93136941144498     -0.13284828324861      1.84309402665183
  H           1.08363595587740      0.54669283141313      1.64989608088770
  H           2.41715140887434      1.70351942264327      1.30224095370888
  O           1.34771735454647      0.88646378963168     -3.60232127766431
  O           2.00136838563669     -0.92197465855527     -2.64485730937401
