20
Coordinates from ORCA-job NEB E -48.547496759490
  C           0.50426480297452      1.45159329504494      0.46974616279564
  C          -0.44940393547874      0.67408851653124      1.02320183032165
  C           0.45913589123642      2.13253362435031     -0.82645195128315
  H           1.34855572028150      1.65857043847612      1.11896794078444
  N          -0.32325405404596      0.59365469742172      2.54249568530613
  C           0.82550424950579     -1.33294059429254     -0.89188245434890
  C          -0.33941450670776     -1.91466206010814     -0.64013644196502
  C          -1.56434264980837     -1.21840912108892     -0.10440913131547
  O          -1.50121373115270      0.02690667011913      0.60666610570263
  O           1.79646306774629     -1.78781768477727     -1.71828768997668
  H           0.97563148355365     -0.31630738694587     -0.59012779421783
  H          -0.52407910829373     -2.93991730596464     -0.91568705222914
  H          -2.09749198812224     -1.88593644901665      0.58361731089669
  H          -2.20081279722765     -1.02501177429266     -0.98105617065117
  Cl         -0.83226810591105      1.70809937513548     -1.86815829036350
  Cl          0.52601770396079      3.87643071852348     -0.54854201614798
  Cl          2.11399702259846      1.74405596278224     -1.80149614303886
  O          -1.38314275514414      0.67652447624094      3.11234248992153
  O           0.77166739326093      0.61523677960085      3.04108281967003
  H           1.89418629677402     -2.73669217773975     -1.61188520986105
