20
Coordinates from ORCA-job NEB_product E -48.576156541800
  C           2.53981046055491     -1.66254311128831     -0.23244641203324
  C           1.60111332690553     -1.49021074231452      0.92312101414685
  C           2.31037845674405     -0.51830607761347     -1.22517417122777
  H           3.57629975522308     -1.57966505980836      0.12359571752315
  N           2.31339304901456     -1.03757861594264      2.23646480884018
  C           2.41167377163278     -3.10486460982718     -0.81647983965102
  C           1.28597007136734     -3.28160979283481     -1.79478262877723
  C           0.13078249278158     -3.83817165209420     -1.48260671278543
  O           0.43368829345182     -1.65777997404195      0.98515945332459
  O           3.66875259642749     -3.38511128756591     -1.38313910121849
  H           2.23968380743124     -3.77091414705736      0.04830417997860
  H           1.50266035151243     -2.95296053853745     -2.80135022596905
  H          -0.09001902571753     -4.16979119529983     -0.48176271819778
  H          -0.64920343764482     -3.96197440570635     -2.21271082447824
  Cl          0.62281092272372     -0.39799786718495     -1.75792285053723
  Cl          2.71677787951157      1.01635768845210     -0.38141290074454
  Cl          3.35922927882491     -0.67532161201693     -2.63512898317692
  O           1.57442871806727     -0.76736055946615      3.13926078680285
  O           3.51710029121038     -1.01056070802739      2.23168100664476
  H           3.61156893997768     -4.19273573182435     -1.90506959846403
