20
Coordinates from ORCA-job NEB_reactant E -48.587105493630
  C           1.86834503410841     -0.14596616687175     -0.04979032083546
  C           1.50153801104591     -1.27055337285147      0.57940542583766
  C           1.41831087025841      0.37398856922425     -1.36149603871042
  H           2.56426343653559      0.48796963084433      0.48563796236551
  N           2.08751765926966     -1.45731097585089      1.94830043439340
  C           2.29892838734700     -4.90949269126048     -0.84249483344613
  C           2.07990623660904     -3.63665788026461     -1.15623135868853
  C           0.75686604700874     -2.97488277716849     -0.96366785212110
  O           0.70366945314120     -2.28144864220647      0.30417404763611
  O           3.45940357557441     -5.56819003583145     -0.97167557336807
  H           1.51862951746955     -5.55121693992417     -0.45844857940637
  H           2.88423792429682     -3.01263005990406     -1.52359480255043
  H          -0.04244426308857     -3.71074541576914     -0.87325712487230
  H           0.53614367789505     -2.28576577116962     -1.78049571444630
  Cl         -0.33503815810013      0.15204249297292     -1.61360447314463
  Cl          1.76609720518896      2.11644381777499     -1.46738336950189
  Cl          2.29800867206424     -0.42905552783257     -2.70938164852732
  O           1.93053490805345     -2.53846240990712      2.44611780127482
  O           2.67302827111526     -0.52268155611162      2.43694637336508
  H           4.15185353420702     -4.97928428789255     -1.30076035525364
