18
Coordinates from ORCA-job NEB E -26.437486103980
  C           1.24889531855113      0.10742149076426     -0.03872344228934
  C           0.60028029816797     -0.67828877099970     -0.98924802994203
  H           1.77530374500565      0.98593345922819     -0.38503605323794
  H           1.79013262805419     -0.41673778110477      0.73969784168354
  C           0.58729028699415     -2.16359560561401     -1.03956688275938
  C          -1.08290482172621      0.52599541618076      1.36306286466482
  C          -0.23666940063182      1.13104770759999      0.43701851379560
  C          -0.67459444111201      1.19155137123582     -1.03579751757312
  O          -0.38786347262177     -0.05368288127302     -1.65257448983299
  C          -1.01160167998176      0.81642615925829      2.71395550537116
  H          -1.72325697950908     -0.29571688061878      1.07179802683002
  H           0.23246838179958      2.04064159370539      0.79947456102297
  H          -0.13279160518206      1.99665421255665     -1.54465453362917
  H          -1.74907091906385      1.35737103352422     -1.14835354317560
  H           0.07642829127593     -2.55706521932462     -0.15753756703319
  H           1.59871226418538     -2.56238722944484     -1.04849977941589
  H           0.05007344290608     -2.49456128822011     -1.92415239162539
  N          -0.96083133711152      1.06899321254625      3.83913691714593
