18
Coordinates from ORCA-job NEB_reactant E -26.469440588050
  C           1.53037861951892      0.94379442621801      0.43715425787178
  C           1.70712134775287      1.39541209237900     -0.79673885267404
  H           0.86970625241836      1.39831403768361      1.15227862341244
  H           2.07145933544880      0.08077769219034      0.77557644137774
  C           2.64199813819931      0.77221871029569     -1.78864946274406
  C          -0.01480772737042      4.27212061389761      1.63163943848009
  C           0.68318841318896      3.91798569571083      0.55365266054904
  C           0.11014534603398      3.15633238313408     -0.60115953478890
  O           1.07910428099844      2.47550932885582     -1.35904942080260
  C           0.54903524742565      5.02054503848723      2.68200139716206
  H          -1.05642434034243      4.00250320381199      1.75505955277398
  H           1.72380489076370      4.19715508643456      0.45516309658945
  H          -0.33698404884829      3.86772855968771     -1.30791611728991
  H          -0.67766783888724      2.46698649320112     -0.26426441275871
  H           3.15473149031756     -0.07704015675552     -1.35026447342064
  H           3.37405011280489      1.50830839707038     -2.11545709861539
  H           2.08530241039288      0.44690018491375     -2.66556145108494
  N           1.00005807018405      5.62684821278380      3.54453535596261
