18
Coordinates from ORCA-job NEB_product E -26.482791069470
  C           1.48265080286213      1.88699379325657      0.07660485591360
  C           2.28104720026198      2.05968369580044     -1.20656504803857
  H           2.14855434100176      1.69046802867158      0.91820966823987
  H           0.83772348138265      1.01330332269805     -0.05999620656890
  C           3.59775393303765      1.33331772692732     -1.22006958953170
  C           0.59533625605986      3.11537801284884      0.35311620290385
  C          -0.43026802170542      2.83232528030054      1.41752845971769
  C          -1.73015037363161      2.95350609506801      1.23152721417635
  O           1.87713532952975      2.71734602156962     -2.12934446758792
  C           1.43660355561348      4.20752362448617      0.79193441267025
  H           0.10630709243204      3.41516562097649     -0.58130063773093
  H          -0.02845097404954      2.51714931103974      2.37155832540825
  H          -2.14347997678492      3.27288855785850      0.28866907487842
  H          -2.43688747956402      2.73852248716063      2.01442292124107
  H           3.48126056917608      0.31967902994818     -0.84410623874178
  H           4.28933326332749      1.86198104119178     -0.56528279364978
  H           4.00947948856735      1.31629473898182     -2.22546369161753
  N           2.11065151248328      5.05057361121571      1.16735753831776
