21
Coordinates from ORCA-job NEB E -48.725262150780
  C           0.28119639436810      0.18316635498086      0.20872309714602
  C           0.64898264417517     -0.77547070975364      1.35418519421173
  C           1.33543961196025      1.10276747389500     -0.14844656268674
  H          -0.63930714559884      0.72635122829593      0.61789882726098
  C           0.94136512767113     -0.09414049875940      2.70984191929233
  C          -0.28614538617929     -0.65703827334247     -0.99812083637131
  C          -1.01212867144727      0.16160478176052     -2.03070829622234
  C          -2.32966252093898      0.18450678175106     -2.12707177997982
  O           0.61536640703861     -1.96319415589130      1.26212735157022
  C           0.84058887469824     -1.33739147473414     -1.59945182347816
  H          -0.96904610858181     -1.39297041446570     -0.55995802041596
  H          -0.39204755629122      0.71701793255998     -2.72032732044888
  H          -2.96421622751787     -0.37711389367116     -1.46154454899778
  H          -2.82400154614722      0.77951509093457     -2.87566467045644
  Br         -2.36539197265204      0.60437889142387      1.96729689103861
  Br          0.97553822654503      2.64998561855325     -1.11877464288118
  Br          3.10232946614189      0.91356741435931      0.38765433423031
  F           2.14141308617414     -0.49004833844946      3.17774446694862
  F           0.98247638110687      1.25170635462874      2.60776838461049
  H           0.16952559351824     -0.36921589846523      3.44536474122689
  N           1.74772532195687     -1.81798426561062     -2.09853670559758
