21
Coordinates from ORCA-job NEB_reactant E -48.775776463150
  C           1.71199760203014     -0.15082474808267     -0.18698621209190
  C           1.19759033977122     -1.38290406405050     -0.13659996847637
  C           1.17484383256061      1.03190277140268     -0.88804149202502
  H           2.62368295961018      0.02774714560340      0.36833747331459
  C           1.87168552722021     -2.42545529992015      0.74515921085636
  C           1.95176189154833     -2.73176499314702     -3.59394464804879
  C           1.06960841512859     -2.99035058694649     -2.63130554971873
  C           0.05840982967880     -1.99665220803413     -2.15672416775902
  O           0.07876643368843     -1.86432252852319     -0.72901907188170
  C           2.88931998000390     -3.68913701847698     -4.03288742462911
  H           1.98987829767281     -1.77569951630757     -4.10145257432185
  H           1.06249766098008     -3.94966050956919     -2.13179320207313
  H          -0.95540551289803     -2.35428640125033     -2.36055383121821
  H           0.19973031092810     -1.03586187158185     -2.66002355001839
  Br         -0.77134912530585      1.06088457071150     -1.00352508618159
  Br          1.72419148693993      2.66307428085371      0.04831305077507
  Br          1.91724780613856      1.15155605055556     -2.73258164972975
  F           2.75882383989173     -3.14384335373410      0.01174086994959
  F           2.57262457980053     -1.86478082096996      1.74984164208547
  H           1.13356148656954     -3.12269468709501      1.16921031112724
  N           3.65923235804217     -4.45602621143771     -4.39576412993476
