19
Coordinates from ORCA-job NEB E -40.822946310090
  C          -0.12215032589684      0.81661779903241     -1.01982541573993
  C          -1.49434334081526      0.88080139519650     -0.75188637544405
  N           0.36080515455679     -0.27783416766220     -1.84446718510789
  H           0.38583018507383      1.74812057380611     -1.24838465252711
  F          -1.96539494471537      2.14706810884394     -0.52630557060295
  C           0.52268986746139      0.21378166784108      0.78303671748366
  C          -0.27163825829012     -0.91355896441752      0.97117586625719
  C          -1.66819194270883     -0.75782569386456      1.10222221871756
  O          -2.20943431869967     -0.06659929989919     -0.37026052088207
  C           2.01856074005172      0.07508762896673      0.65550785257553
  H           0.24099703858502      1.13790412745483      1.27763176544360
  H           0.11536718057655     -1.87293568793079      0.66109463639282
  H          -2.03383247681837      0.03097356356063      1.75100568484965
  H          -2.26797589273910     -1.65658048601697      1.12323812642700
  O           1.25232641438195      0.00623734187983     -2.60990574939407
  O          -0.16399186125933     -1.35500728882637     -1.72915262760902
  F           2.36512339856143     -1.10761966749587      0.06613012665306
  H           2.47276175752284      0.07533436865784      1.65476336359452
  H           2.46249162517137      0.87603468087356      0.05438173891249
