19
Coordinates from ORCA-job NEB_product E -40.868211985480
  C           2.83038594862895      0.04832184571082      1.50770929670187
  C           2.29151930041645      1.45632673462539      1.61211071780096
  N           1.82483521484080     -0.76655500241335      0.72802635807174
  H           3.75898008602644      0.05236885556665      0.92434854134562
  F           2.33700723986520      2.06068905960295      0.40363064629778
  C           3.02433364060868     -0.60930682805382      2.88626322396414
  C           3.44001861747192     -2.04532695904153      2.69559511018044
  C           2.68384732752522     -3.07405129688521      3.02441269424286
  O           1.86782317887173      2.02319946809506      2.55165517404263
  C           4.08573977040764      0.15020934245995      3.68970720697974
  H           2.07873441943218     -0.55879725767964      3.43465539711343
  H           4.42141372242863     -2.18323226893569      2.26286698394900
  H           1.70212970638263     -2.94454416282857      3.44950129817932
  H           3.01261881178917     -4.08707625674420      2.87341293435385
  O           2.16420492230442     -1.14755587834783     -0.35508098144181
  O           0.77157549260282     -0.96440719287502      1.26775576718623
  F           5.24031503642248      0.26353261877269      2.95594101864443
  H           4.33741240474880     -0.39859482538106      4.60157886949353
  H           3.76100515922584      1.16450000435240      3.93610974289422
