20
Coordinates from ORCA-job P E -31.808029852550
  C          -1.20705045552962      0.50400336997861     -2.26959747641035
  C          -0.51914387637116     -1.73365660822686     -0.39393290230751
  C          -1.14057121326585     -1.93255456697038     -1.74271385641976
  C          -1.44758204898486     -0.94867038198946     -2.56908248745085
  C          -1.00839699355198      0.71574593811926     -0.76437001004292
  C          -0.02819719398293     -0.30818501582939     -0.19369691263031
  H          -1.33497128281577     -2.95888003961174     -2.01646420435852
  H          -1.89068844970156     -1.15710991479677     -3.53166191761330
  N          -2.36054443202408      1.28717862060589     -2.69027947284857
  H          -1.25718796816405     -1.96748661088003      0.37870018954947
  H          -0.28103231352618      0.80884816078605     -2.80232326110102
  H           0.31211169580530     -2.43328570415206     -0.27475960908208
  H          -1.97538917920647      0.59944701829178     -0.27450692758088
  H           0.14668403650516     -0.09297519198507      0.86641968272547
  H          -0.63921611433776      1.72507868471823     -0.57318997096078
  N           1.28584159408973     -0.09317117056924     -0.86099414398541
  H          -2.55962985678671      1.12996275279510     -3.67180798409014
  H          -2.18200543046295      2.27715036510531     -2.56165024443826
  O           1.77699799616668     -0.99910542533131     -1.48525103808476
  O           1.77955148614507      1.00131571994208     -0.71917745286951
