20
Coordinates from ORCA-job R E -31.727162809510
  C          -1.22717081573085      0.22831125746599     -2.87450009760628
  C          -0.02396537207694     -2.21239234295279     -1.56295985169274
  C          -1.32055541949206     -1.90299308983165     -1.61330431992585
  C          -1.90916885639093     -0.75273571884601     -2.24784223748189
  C          -1.12391557768865      0.90130596451966     -0.07254661014040
  C          -0.19581231400669      0.08890574793712      0.42302629784518
  H          -2.02709796283627     -2.55902714042252     -1.11982696151239
  H          -2.99044923516242     -0.69703755178018     -2.23238287592956
  N          -1.80575731185208      1.33476014781766     -3.42302361199893
  H           0.32229372434001     -3.09055089952049     -1.04692593047768
  H          -0.14829128929478      0.22310014598409     -2.91431296688599
  H           0.73275732776295     -1.62839201152803     -2.05654504249255
  H          -2.14800460442340      0.84824640580146      0.24699405317541
  H          -0.36504766162515     -0.67768535417043      1.16165820657814
  H          -0.85281401856176      1.67657194128907     -0.76823652115079
  N           1.15948461301631      0.17754101362253     -0.00248215605697
  H          -2.80295996568230      1.31856084626041     -3.56425027774630
  H          -1.27378411265952      1.87569443549747     -4.08168285200817
  O           1.97760007654289     -0.47887888490256      0.61249313865069
  O           1.42555877582163      0.90028508775921     -0.94558938314294
