19
Coordinates from ORCA-job NEB E -44.117527953010
  C           0.49891650086501     -0.45642948049656      0.80790722893744
  C          -0.69585065493862     -0.97086378605777      0.28157157168893
  C           0.40568037551636      0.52326911176018      1.96382061155149
  H           1.28634996718629     -1.18853199509865      0.98443317108825
  N          -0.61955370528196     -2.23572329166639     -0.41550987922587
  C           1.09485291008566      0.51783871071717     -0.74255878720304
  C          -0.00380672841461      1.32191382106972     -1.02599145127762
  C          -1.28166380769147      0.68869966025824     -1.30294605958010
  O          -1.65711134845498     -0.16251776497896     -0.09836005292091
  I           2.96475542295722      1.45869607975843     -0.36727255729671
  H           1.27018062466535     -0.37079584485465     -1.33666008500414
  H          -0.00145367535414      2.35885063702576     -0.72592184850086
  H          -1.27339740629869     -0.02626463476714     -2.13045593703462
  H          -2.10746535681165      1.38758879031641     -1.40015025594659
  F           1.62416543130643      0.76849575245670      2.48529820949419
  F          -0.11776608855753      1.71946595248206      1.63121368239658
  H          -0.21860314597198      0.09886013249719      2.76822053004785
  O          -1.47525404263322     -2.45932710932754     -1.24516267231579
  O           0.30702472782653     -2.97322474109418     -0.13147541889848
