24
Coordinates from ORCA-job NEB E -47.240345388100
  C           0.06742587207651     -0.02957986612041      1.02184503074695
  C          -1.27897527423794     -0.31591686936139      0.84887672333603
  C           0.41787725918918      1.28346518345037      1.66409357654453
  H           0.74219690252323     -0.83991088175206      1.27360113601276
  C          -1.71282530549589     -1.77057017453933      0.79774613618030
  C           0.58016731863067      0.36791282294808     -1.02684509891613
  C          -0.67004125790982      0.42098408932088     -1.65400305097303
  C          -1.65369601251507      1.27906440703087     -1.19485441287720
  O          -2.12005558888015      0.54259928075690      0.45761675166875
  O           1.40975525018571     -0.61345617502244     -1.38235287900027
  H           1.03765259095448      1.29577770008091     -0.69685067908828
  H          -0.95512027836055     -0.45278201234854     -2.22532897196771
  H          -2.63271735614821      1.24964076674544     -1.64536968183587
  H          -1.37457085385118      2.23226588514457     -0.77202569855957
  F           1.71679109419954      1.65125188085768      1.40583721264946
  H           0.34213195155673      1.18962946732217      2.75522240679331
  H          -0.22984521974370      2.09411097908342      1.31999854236406
  Br         -1.64757079461477     -2.50178284672814      2.61486009153561
  Br         -3.51756247183436     -1.88857491435857      0.13023603509539
  Br         -0.56142828500924     -2.88217482351357     -0.32583482756145
  C           2.74836080324532     -0.57379195823586     -0.92297441973575
  H           3.40102443800258     -0.69778488773124     -1.78786094069560
  H           2.91139236512821     -1.40680003421484     -0.23559299944432
  H           2.97963285290871      0.36642298118510     -0.42003998227198
