24
Coordinates from ORCA-job NEB_product E -47.277685279850
  C           2.72587141665525     -0.42563560326441     -1.46778472233261
  C           1.62008057498249     -1.32550587534231     -1.94477645923556
  C           2.14109491647337      0.82842392475058     -0.81894656065975
  H           3.38083518916078     -0.93489698751998     -0.75559200591040
  C           1.71368922186827     -2.78444918098536     -1.53228560099020
  C           3.56034737300732     -0.08712171195168     -2.73721674513279
  C           2.86230805964894      0.90387952051646     -3.62495433798722
  C           3.32756888922997      2.11506342504965     -3.86520748822287
  O           0.66710464066625     -0.95594832309723     -2.56974371299253
  O           3.74327593369826     -1.33473748450811     -3.38750293027672
  H           4.53283441028228      0.31969882350530     -2.41832006752083
  H           1.94815142488129      0.54616135810302     -4.07877270714857
  H           2.80912472848413      2.80224346549640     -4.51120530194166
  H           4.23851017130289      2.47249100406976     -3.41332523159368
  F           3.14913464360377      1.69701782880035     -0.50434832970572
  H           1.62767569286274      0.58074616826918      0.11670811738342
  H           1.46242464790467      1.34734012902195     -1.50210314715058
  Br          1.10201273251406     -2.70464844711530      0.33779006729740
  Br          0.48180989927396     -3.84125158391460     -2.56169257534981
  Br          3.45318732890179     -3.58493881135472     -1.57128581939202
  C           4.70460159488608     -1.31228293438855     -4.41660403011434
  H           4.77364260029418     -2.33262974714767     -4.78705540951450
  H           5.67895181633927     -0.99555969598690     -4.02911009209656
  H           4.40456209307797     -0.64115926100583     -5.22726490941189
