14
Coordinates from ORCA-job NEB_reactant E -26.133419017330
  C           1.96786890301257      0.01552369303930     -0.21487573417679
  C           1.31996986010184     -1.04786908051882     -0.65292399524832
  H           2.59245263828638      0.57612862066245     -0.88910806829928
  H           1.91150530907671      0.33915796228906      0.80638329498105
  I           0.06499319908269     -2.13910074193468      0.71533441449479
  C          -0.78345536799776     -0.35359226954482     -4.15350540251611
  C          -0.56280550509289     -0.78424944883317     -2.92324798317465
  C           0.32614843000866     -1.95028317437560     -2.61512603067508
  O           1.47444927921538     -1.56611976628473     -1.87344844582707
  Cl         -1.79730789951694      0.98347176658911     -4.50457610582507
  H          -0.35706492114494     -0.81946945685617     -5.02918347902668
  H          -1.00508442686819     -0.28372075797344     -2.07296864473568
  H           0.71964218503438     -2.40114357637017     -3.52754723046015
  H          -0.23841168319788     -2.70743376988831     -2.05060658951096
