17
Coordinates from ORCA-job NEB_reactant E -33.521973864210
  C           2.24437279186182     -0.47061671436770     -1.04683688099219
  C           1.14618155971065      0.00012706814526     -1.62315794252750
  Cl          3.80231101027224      0.28653089146060     -1.04092089711793
  H           2.22827999273279     -1.40810699654798     -0.51876391573393
  I          -0.60913900287803     -1.17211156726882     -1.46088951964759
  C           2.56949959612736      0.22597434203867     -4.43597060265538
  C           2.78914534497677      1.35731985140457     -3.78853016359832
  C           1.85833640493576      1.96861954657552     -2.78568713805561
  O           0.84039604427009      1.09000081009398     -2.32642562541046
  C           3.50862169469289     -0.36979834313155     -5.43304858069995
  H           1.67325051464533     -0.35926147941323     -4.28248278787667
  H           3.69013440245833      1.92532625638880     -3.96886666798121
  H           1.30375326396689      2.79224503797912     -3.24996029517921
  H           2.42443659946947      2.37225968222443     -1.93932208084039
  F           4.61704173318366      0.41149975513061     -5.63032725849266
  H           3.01958431966585     -0.48212124497386     -6.40888070096091
  H           3.86669372990812     -1.35068689573840     -5.09472894223009
