21
Coordinates from ORCA-job NEB_reactant E -33.394478672470
  C           1.26843690109752     -0.18195643402417     -0.13043195381925
  C           1.28116178433027     -1.10739563985662      0.82890205873123
  O           1.37834464378135     -0.49114505692102     -1.45252698769133
  H           1.15627221077497      0.86712660328970      0.11859871149407
  C           1.08653367754231     -0.77873741826905      2.28153519575752
  C          -0.66445278680093     -3.60127250078434     -1.77374212510408
  C          -0.53910922850790     -2.88927414454135     -0.67206363980326
  C           0.38015050065068     -3.27340398799676      0.44750008057334
  O           1.52299830743049     -2.43835779069668      0.52303670250968
  F          -1.48342677299723     -3.22817365966445     -2.77105512367588
  H          -0.16622307493352     -4.53532143059345     -1.98903874167218
  H          -1.07611232668377     -1.95788346462639     -0.56929857972000
  H           0.78005413481260     -4.27729277461754      0.28819442294111
  H          -0.17155691801225     -3.25256178886566      1.39964720284807
  C           1.59050676782869      0.59916643346851     -2.31309105841949
  H           1.54609726773899      0.20284858474258     -3.32588696125956
  H           2.57246362782550      1.05529342122402     -2.14482030196444
  H           0.81601598081626      1.36465235393288     -2.18878768115583
  H           1.89171849542350     -1.22087901982007      2.86596171345778
  H           0.14409503387415     -1.18613564608591      2.64917648355514
  H           1.08163177400832      0.29590336070579      2.43249058241739
