21
Coordinates from ORCA-job NEB_product E -33.404986932690
  C           0.50048249632825     -1.00335796334922     -0.91593773089834
  C           1.39070364263818     -1.22578423782372      0.32013778226066
  O           1.25775504214367     -0.74505810639821     -2.07297017760570
  H          -0.20677872914119     -0.17906158377347     -0.72563950874535
  C           0.87834768169326     -0.59487929511563      1.58680385351121
  C          -0.30206540999887     -2.29434505657846     -1.19177803829872
  C          -0.75164635624306     -2.98701769503875      0.05907239918954
  C          -0.10972989659971     -3.99999417645920      0.60845863276921
  O           2.42197544694028     -1.83805719201273      0.25314167931748
  F          -1.41361817948052     -1.95738567713348     -1.93833094242036
  H           0.31856657969704     -2.94141090660505     -1.82085741890848
  H          -1.66848499119008     -2.59853277819057      0.48180676203089
  H           0.79809655443734     -4.39174489873661      0.18178623779076
  H          -0.45775667525765     -4.46500220166207      1.51438537596127
  C           1.92198360735820      0.49441810291310     -2.05669681513577
  H           2.40841350472827      0.58767742967024     -3.02487700118991
  H           2.67846272338168      0.53787202226772     -1.26531541387738
  H           1.21317507470414      1.32152284747352     -1.92280721131690
  H           1.44981152013581     -0.95173903447854      2.43921342932726
  H          -0.17659579539168     -0.81624654167652      1.72349411963968
  H           0.99180215911664      0.48592694270765      1.51030998659896
