24
Coordinates from ORCA-job P E -34.713434506510
  C          -1.37039900001049      0.42471275545905     -2.33963522876063
  C          -0.39015658913606     -1.81402296891380     -1.07481583290833
  C          -1.72165877328766     -1.88626187092643     -1.75164687390967
  C          -2.18531541042557     -0.82822876426575     -2.39566738955365
  C          -0.99274307604462      0.66978652081937     -0.86842856731353
  C          -0.16802824833470     -0.49755080700827     -0.29560679201952
  H          -2.25890228368307     -2.82078875242974     -1.73195792808828
  H          -3.13460338657756     -0.79973286765661     -2.90462614121478
  N          -2.12587661877707      1.60047562269243     -2.80867538840085
  H          -0.26015969550069     -2.66280868849460     -0.40491034840111
  H          -0.46173466193258      0.36301403432023     -2.94941716609891
  H           0.37938094915582     -1.88707475925842     -1.85072744702039
  H          -1.92402411935841      0.78023435345322     -0.30876050545164
  H          -0.49804170881010     -0.65723512752764      0.73526512544081
  H          -0.42983610484992      1.60098939084102     -0.78152324844769
  C           1.32225935860044     -0.13622283501577     -0.25942809730354
  O          -1.49944512327148      2.45682575480068     -3.38850853118892
  O          -3.30470429293738      1.65004755854074     -2.55425844941313
  C           2.17708140512649     -1.19614163332163      0.42611099410804
  H           1.43998513683764      0.80550122404615      0.28149594812895
  H           1.68321773753155      0.02039373256061     -1.27870658313677
  H           1.80904670174725     -1.38804875105723      1.43158569545619
  H           3.20677873285124     -0.85476143772777      0.49929982205290
  H           2.16960907108692     -2.13100168392986     -0.12757706655554
