24
Coordinates from ORCA-job R E -34.623022951300
  C          -1.25342688820971     -0.13098010117579     -2.74708135506362
  C          -0.42303266242384     -3.00676777719841     -2.36763809678908
  C          -1.48612998280601     -2.41864708268668     -1.82214554675799
  C          -1.96109728529132     -1.09515999543790     -2.14804553285849
  C          -0.78702273389147      1.69696000309942     -0.10213381360065
  C          -0.14042411004497      0.71437201551097      0.49595197010985
  H          -2.07401571897407     -2.95308801706771     -1.08828133979924
  H          -2.97789754708132     -0.85395742095797     -1.86075194347568
  N          -1.82869988284992      1.14244872509648     -3.01933675693475
  H          -0.12200399178291     -3.99911554251397     -2.08048484210048
  H          -0.22342452417324     -0.20741098357458     -3.05626514338173
  H           0.16547255662174     -2.53204782760434     -3.13429622854206
  H          -1.84548487664592      1.84971714378926      0.02604774823932
  H          -0.67153792046808      0.02270545624307      1.13825633329257
  H          -0.27972841690942      2.40185025761511     -0.74127730057315
  C           1.32870001971701      0.46269261523154      0.37003401669498
  O          -1.10605214369647      1.96181212185837     -3.55113128401650
  O          -2.98853328514765      1.33593156417794     -2.71771280936189
  C           1.62958802857836     -1.00167708169172      0.05758948002445
  H           1.81020795862565      0.72459462359682      1.31756258642857
  H           1.74776965475394      1.10583392922767     -0.40589216997392
  H           1.23778896098321     -1.64681967651566      0.84126351906374
  H           2.70274780549280     -1.16189727027180     -0.01461739658762
  H           1.17018698562362     -1.29593967875010     -0.88384409403663
