24
Coordinates from ORCA-job TS E -34.609045949620
  C          -1.16974916623879      0.67768168804927     -1.56052043889666
  C          -0.03269430277813     -1.61191630903576     -0.30673023280138
  C          -1.35318513712321     -1.55179161382760     -0.63394174954431
  C          -1.91091632926499     -0.43514380707883     -1.27493382769547
  C          -0.54237950520921      1.17778879154321      0.62765721343790
  C           0.25737949986885      0.18751556573987      1.09696185650078
  H          -2.03541248741958     -2.28952633026339     -0.23644862943706
  H          -2.98570273438944     -0.35781646736586     -1.36655496751274
  N          -1.80337176899211      1.86578248544410     -2.00371321846002
  H           0.32528186052321     -2.43475477701013      0.28910464529192
  H          -0.11000500313538      0.67524269999699     -1.75063020291345
  H           0.70865334977169     -1.09201666491027     -0.88329970830360
  H          -1.58437413430804      1.22144490722878      0.89253831361828
  H          -0.13639383427207     -0.51859728793489      1.81281181524240
  H          -0.11329503742672      2.07227031295440      0.20752749372718
  C           1.75689768819587      0.33626232829689      1.05871281419266
  O          -1.07632041517058      2.75161076239814     -2.41859793882592
  O          -3.01394519808458      1.95102936175331     -1.92585013161265
  C           2.53060644353164     -0.87820920268804      1.55775159186915
  H           2.00842122998836      1.18516835087827      1.70378159340778
  H           2.08679904218233      0.60409342108505      0.05188383849619
  H           2.16156798868781     -1.18928334236357      2.53255786874622
  H           3.58475646456193     -0.63025764961201      1.65774975872850
  H           2.44738148650115     -1.71657722327795      0.87218224274428
