21
Coordinates from ORCA-job NEB_reactant E -39.895752919510
  C           2.12179976340845     -0.41631927274715      0.05403193748989
  C           1.42903509531441     -1.54577957535960     -0.07425434567574
  C           2.38128140098730      0.55831737964459     -1.03962524782154
  H           2.52505625669695     -0.16274968571812      1.02513482530564
  C           1.16759755224322     -2.42523743683134      1.12256835646496
  C           3.98923378393773     -3.30889164138360     -1.59193907142668
  C           2.68674570588313     -3.53463591339183     -1.71990858608487
  C           1.73731778282993     -2.50555614922128     -2.23909382461934
  O           0.85288988839024     -2.01055126150397     -1.21963418124108
  O           4.90562611372928     -4.16199730602963     -1.10676802075591
  H           4.44587474447912     -2.37865115512128     -1.90311380428470
  H           2.25391809646074     -4.47402478507875     -1.40174248561010
  H           1.05209639468325     -2.93177571551426     -2.97538877298521
  H           2.29132987287759     -1.67531547856175     -2.68916489978274
  H           1.70297137129509      0.40189792840536     -1.87431897154928
  H           3.41037920875664      0.46916051739716     -1.38988863915359
  H           2.24931551427336      1.56977689282284     -0.66038079983737
  Br          0.39944272193769     -1.42191937139009      2.61414033392495
  Br         -0.04425451723583     -3.85614475627707      0.67492927682234
  Br          2.84478970016152     -3.23768189854790      1.77679410874184
  H           4.48325354889018     -4.97242131559234     -0.79207718792147
