21
Coordinates from ORCA-job NEB_product E -39.895712019070
  C           2.55838213013734     -1.45703109130439     -0.15511201959633
  C           1.31659587167010     -2.14934487955346      0.34022831687848
  C           2.19405431089374     -0.16844393145820     -0.88766180857616
  H           3.23236686876347     -1.23723014169561      0.67751930106433
  C           1.28233021341238     -2.47407781949500      1.82867122776308
  C           3.27145753675858     -2.47715833296753     -1.08168384906894
  C           2.57341072584654     -2.63146499124952     -2.40231216744856
  C           3.12344845208160     -2.31148815710420     -3.55809687625146
  O           0.35981467376560     -2.40966703679807     -0.33011740964242
  O           3.27672949469993     -3.69725924199577     -0.35879141413346
  H           4.30284704973935     -2.12695704668595     -1.24467509391324
  H           1.58033780770487     -3.05428102563435     -2.34704442888132
  H           2.60239754436938     -2.44702017175094     -4.48973423216242
  H           4.11608593117792     -1.89470743241126     -3.62066383044763
  H           1.43332115765871     -0.36282072939411     -1.63943440114894
  H           3.07534653888413      0.23788673720846     -1.37695737241962
  H           1.81345667917507      0.56840677905257     -0.18355725009310
  Br          1.01753175464584     -0.71921085699837      2.66657100526334
  Br         -0.23166746816845     -3.59899861157369      2.22467794012435
  Br          2.88257017198017     -3.26375305506991      2.54413833532118
  H           3.73608255480374     -4.37427896312069     -0.86726397263115
