19
Coordinates from ORCA-job NEB_reactant E -34.307974255560
  C           1.96637595153751     -0.01540792223138     -0.02518808614816
  C           1.94328842435255     -0.49655963774340      1.22040890487425
  F           2.02009344392746     -0.78112481711301     -1.14864428014354
  H           1.95447990456938      1.03866947197266     -0.23096327697155
  O           1.88784903355478      0.43466595000747      2.21015201743643
  C           4.52483973324896     -3.66708737766476      0.89872847546879
  C           3.60552379556437     -2.90873626993352      0.31649170472582
  C           2.18463714864110     -2.85430951392526      0.78266759419110
  O           1.94317191862467     -1.76632047795055      1.67766024283839
  O           5.82299293798761     -3.75040574275450      0.54352249218149
  H           4.30169229846290     -4.32022536321896      1.73064353567852
  H           3.87073674831420     -2.26345441661779     -0.50909946874266
  H           1.94578374965811     -3.73373835515737      1.38500590658146
  H           1.49830452376575     -2.79917511192171     -0.06693409780141
  C           1.85196396126320     -0.04398617405520      3.54234558522399
  H           1.81468578503022      0.84835917172202      4.16328050435475
  H           2.74544523494916     -0.62692560073671      3.77828232304367
  H           0.96676110562861     -0.65935784546525      3.71858485222452
  H           5.99967430091947     -3.15997996721279     -0.20084492901585
