19
Coordinates from ORCA-job NEB_product E -34.331310297990
  C           3.55101984459907     -0.68898164987712      0.48154001758025
  C           2.33500554049171     -0.53543359776883      1.38317740342746
  F           3.21005415625934     -0.37069512494925     -0.81160134738024
  H           4.34888683842284      0.00044486266247      0.78100542026678
  O           2.70749126482724     -0.65592267205408      2.66026330287347
  C           4.06520940855737     -2.15384327543782      0.51419227246825
  C           2.93275798458296     -3.07636963090324      0.15104970827475
  C           2.34439435479695     -3.88807648519683      1.00737060779896
  O           1.21012322115827     -0.36072332070128      1.01485001560881
  O           5.17498704543000     -2.29555039856331     -0.32892054075536
  H           4.42393361895418     -2.36009848393057      1.52721113194342
  H           2.60981708042093     -3.01777713649294     -0.87975617750447
  H           2.65963136128553     -3.95166384798301      2.03624103661958
  H           1.52563860568634     -4.52251304547542      0.71537445371780
  C           1.65714237188747     -0.58500953625038      3.62098063759855
  H           2.12781558939003     -0.71445531581463      4.59156917146266
  H           0.92565786189889     -1.37359451316531      3.43633222341747
  H           1.15585689067639      0.38244851411951      3.56153350300785
  H           4.89957696067447     -2.09608534221796     -1.23361284042600
