25
Coordinates from ORCA-job NEB E -42.919689410500
  C          -0.26724498737171     -1.06388380171871      0.06897372803317
  C          -1.38995708590900     -0.80837312391107     -0.74588556556310
  N          -0.48378210024734     -1.58839025196011      1.39015590890360
  H           0.57864541598355     -1.55599807525260     -0.39782943391811
  C          -1.23208812826953     -0.94916136107743     -2.24928046151982
  C           0.33035836329769      0.79446920178800      0.57093700216039
  C          -0.70045318526968      1.62704852188024      0.12726759153859
  C          -2.00563858558668      1.33978221727667      0.54489958530075
  O          -2.38878057527380     -0.14781981025017     -0.33632921009938
  C           1.71878710735190      0.93196857711193      0.00209391280996
  H           0.31124892065960      0.56980967147802      1.63234653945051
  H          -0.56646103480512      2.14567473339970     -0.81507581724416
  H          -2.82299035939691      1.94227917755656      0.17686952575503
  H          -2.14514942074719      0.94557394846374      1.54396965240404
  O           0.30859579802659     -2.43308799794208      1.75401663655505
  O          -1.41945140595542     -1.19062304867863      2.04769253767865
  F          -0.11825619306013     -1.66102567048530     -2.59107079883700
  H          -1.13668948915140      0.04809902026653     -2.69981872977163
  H          -2.10105490421444     -1.45900627247412     -2.67758654706124
  C           2.75580525285416      0.11923538721672      0.76890500595116
  H           1.99222174308103      1.99016291250558      0.04758112796367
  H           1.72043318095229      0.64674537938151     -1.05225598873627
  H           2.80352423129565      0.44678850194812      1.80499096053098
  H           3.73880877937210      0.25125786781946      0.32444409470211
  H           2.51956866238379     -0.94152570434254      0.75998874301306
