25
Coordinates from ORCA-job NEB_reactant E -42.963492960750
  C           2.12932290108106      0.38728389290528     -0.37600181890501
  C           1.36466325025613      1.28473920473419     -1.03134373115389
  N           2.62804424925838      0.45399530449396      0.94166231060189
  H           2.41344796104083     -0.51979920790555     -0.88828039303281
  C           0.80261953538396      0.91666689839533     -2.38924480504124
  C           4.09932950009322      3.20736796213366      0.99671797611676
  C           3.21089508664883      3.27630166265135      0.01858677771370
  C           1.72744390169268      3.30413565157992      0.23365604999676
  O           1.02285340202488      2.53530466092543     -0.74556809123582
  C           5.57888001358078      3.18461612124617      0.80533319874518
  H           3.76108508504995      3.14713926907304      2.02316496598271
  H           3.52504264828449      3.32875653680540     -1.01661909637365
  H           1.32987562407282      4.31404093450024      0.08775649396731
  H           1.48074983168237      2.95837625243087      1.24423152477324
  O           3.67236250323331     -0.12930662038487      1.16361913457414
  O           1.97273593734971      1.03169560458582      1.79293436284417
  F           0.87875597016021     -0.42105349953603     -2.63479940719498
  H           1.35870280565176      1.42744366063931     -3.18446095142176
  H          -0.25198206202220      1.20809392989051     -2.43693679642664
  C           6.20448558912285      2.02032902912406      1.57275059587368
  H           5.99752369406079      4.12514467828892      1.17651741636824
  H           5.81569029800472      3.10701011327228     -0.25768625877766
  H           6.05295386486115      2.14629920061354      2.64203792721738
  H           7.27255300730501      1.96831164326009      1.37770227423226
  H           5.74856540212227      1.07890711627708      1.27497034055604
