25
Coordinates from ORCA-job NEB_product E -42.956713044970
  C           2.71067283715968      1.14917587709822      0.22273824535525
  C           2.23845960195104      1.36115230825865     -1.21885427810690
  N           1.52588666048751      0.75678497277115      1.03440277560269
  H           3.41018780315448      0.31090403317060      0.28271356511365
  C           2.90026928756244      0.39276772482907     -2.18820113088690
  C           3.34927587706194      2.42134927423707      0.83742776254140
  C           2.35967116901994      3.54205949811398      0.96987565867931
  C           2.10487165257809      4.14796405281066      2.11469360252073
  O           1.42314770388059      2.17172420850496     -1.53889795183926
  C           4.55089153282328      2.88296561505770     -0.00547589192914
  H           3.71290154096668      2.14865623688778      1.83574597752548
  H           1.87650660046398      3.85679034570362      0.05767077679376
  H           1.41151887625987      4.96726141485677      2.17641733766242
  H           2.57314454762361      3.84725082310463      3.03853716325590
  O           1.57039735731119     -0.35059714105188      1.51820359857515
  O           0.62673990647788      1.54299221936028      1.14187228563294
  F           2.49269935309982      0.61979098501668     -3.46653537753068
  H           2.62509963252105     -0.63765480723015     -1.92876284857521
  H           3.99079004474596      0.50550507883236     -2.16559404767404
  C           5.74620131799597      1.93992379686613      0.07200775716772
  H           4.85566453025541      3.86069575318658      0.37272126416294
  H           4.23966434930569      3.01870398508822     -1.04310188470751
  H           6.05659067749857      1.80576704238589      1.10570072014883
  H           6.58305974746558      2.35892729480739     -0.48080470766096
  H           5.52468739232976      0.96093940733365     -0.34670037182757
