17
Coordinates from ORCA-job NEB_reactant E -38.669373856200
  C           1.70662391996206      0.00710345570679      0.06728112863092
  C           1.02918682816047     -0.77355613754093     -0.78301047627051
  C           2.16646834532262      1.37253234242075     -0.33538552885776
  H           1.94290521404126     -0.33237787205221      1.05762429163474
  Cl          0.51671011779566     -2.34435322053512     -0.25984178607422
  C           0.01599069166929     -0.94986752918327     -5.32734251216630
  C          -0.27198690558948     -0.46442922136775     -4.13527472883134
  C          -0.04614529062113     -1.22381325013929     -2.86942710834089
  O           0.73502390455589     -0.39677314665957     -2.01566650776083
  F          -0.21883784834887     -0.25617691253408     -6.44548662158194
  H           0.43102413676417     -1.92600055170241     -5.53703408507080
  H          -0.67235144814003      0.53198381867461     -4.02844903127179
  H           0.47668925603029     -2.16767587820566     -3.06391353166411
  H          -1.00833162108771     -1.44262452538833     -2.38587202260286
  F           3.03318072376996      1.32836301009518     -1.38239765470767
  F           1.13403178701999      2.15261699648573     -0.75214154610097
  H           2.67031818869558      1.90304862192557      0.48653772103634
