17
Coordinates from ORCA-job R E -26.130925554180
  C          -1.37856309209339      0.16959240702336     -2.86923093800867
  C          -0.17476315405671     -2.27183400340317     -1.54083958154389
  C          -1.46939901621150     -2.01533347371127     -1.70197835985726
  C          -2.05179313402161     -0.85777089490216     -2.34647831036664
  C          -0.75973828501026      1.25023911450122      0.16009794528249
  C           0.28048920738367      0.45857069154102      0.29599993406405
  H          -2.19217722761492     -2.72643070977201     -1.32161410885811
  H          -3.13545393075554     -0.83979974398399     -2.39335632917390
  O          -1.93896360351206      1.24845490379812     -3.45851966119407
  H           0.15756391769642     -3.16644363767939     -1.04282149208468
  H          -0.30230836563564      0.23872069344245     -2.86915805446709
  H           0.59602392494780     -1.61475821259486     -1.90207699053717
  H          -1.64577055989418      1.08741156374168      0.74250672461347
  H           0.36167631925585     -0.38990354300346      0.95921093439489
  H          -0.75271866734242      2.07409325621948     -0.53097932751687
  F           1.40346515165102      0.63541950358835     -0.41903668723538
  H          -2.90144948478652      1.15942208519464     -3.46095569751118
