17
Coordinates from ORCA-job NEB_reactant E -34.071758952090
  C           2.33019602702678      0.42754573864710     -0.10049335000841
  C           1.40584202136844      0.33410888070561     -1.04135547442567
  H           2.99834475746370      1.26386198308058     -0.00416066875185
  H           2.44621151374347     -0.36549658412737      0.61339765320555
  H           0.75313934704435     -0.52455367459528     -1.12269044623622
  C           4.20983535546320      3.07873753271935     -2.02169859572036
  C           3.24184637955592      2.27401773674637     -2.43185505218197
  C           1.80098897746830      2.44039737236772     -2.05112485132028
  O           1.09549564700165      1.22112607629809     -2.02190353778956
  C           5.64375859604374      2.96575478409438     -2.38839362960975
  H           4.00503113372939      3.90977262069868     -1.36007394031193
  H           3.44502290194553      1.44043898560293     -3.08888160780539
  H           1.29637082155200      3.03144712374131     -2.82448403829276
  H           1.70820847693209      2.96629767043379     -1.09178185961035
  Cl          6.17897821881780      4.48587521046869     -3.16950316722241
  Cl          6.61345954767467      2.74339771682091     -0.89880772993800
  Cl          6.00167027716896      1.62657082629716     -3.48348970398064
