17
Coordinates from ORCA-job NEB_product E -34.082473345420
  C           3.28382857017884      0.59851894101664     -1.61101701086375
  C           1.82393650241126      0.28983486846979     -1.79207886783015
  H           3.56203226586377      0.40332899672485     -0.57356940038808
  H           3.84018698091935     -0.10718143751327     -2.23516360449351
  H           1.54245524733663     -0.70296362833420     -1.38997094213748
  C           3.61460177982682      2.04284423523462     -2.00661636165109
  C           3.13512865405146      2.99696985947946     -0.94658610918015
  C           2.18024302642249      3.88412317091144     -1.14355088283049
  O           1.01875712535943      0.99741874888539     -2.32276841414128
  C           5.11186923718868      2.22385846005877     -2.24104997170638
  H           3.10244076773875      2.26875043859587     -2.94801674583618
  H           3.61986370429517      2.89927721724701      0.01495201839138
  H           1.68432732205501      3.98174324996359     -2.09425588337906
  H           1.84658814400813      4.53830007229654     -0.35704170541128
  Cl          5.46837766154840      3.92212297400551     -2.63410677677379
  Cl          6.05630370029141      1.77460770420412     -0.80428363360185
  Cl          5.67005931050440      1.21604612875387     -3.60187570816689
