22
Coordinates from ORCA-job R E -34.590056182930
  C          -0.20845480655371      0.04660966778002     -2.69827691616721
  C           0.00577506296127     -2.80321335014363     -1.76284239387665
  C          -1.11528555282783     -2.11655857975885     -1.95502072569035
  C          -1.20444245870580     -0.69267040785756     -2.22668893407511
  C          -1.42658870185155      1.42688041225026      0.73758974131754
  C          -0.68554346972278      0.32860459602885      0.74920408342920
  H          -2.07030974001828     -2.62209815449102     -1.88706620605585
  H          -2.16884921721721     -0.23845114616175     -2.04090592234359
  I          -0.39318986112447      2.10409102613990     -3.05891090548193
  H          -0.01521134296713     -3.85868746456073     -1.55376120968561
  H           0.76567869234518     -0.34385331466272     -2.93762374790793
  H           0.97655584137409     -2.33994596148590     -1.76938104478958
  H          -2.45366779138985      1.41846177174922      1.06127176903138
  H          -1.06740246765990     -0.62670163655641      1.07987633193827
  H          -1.02727744577101      2.36873624389390      0.40115260223993
  C           0.72752442710596      0.28392679579328      0.31501969369080
  O           1.40026296546521     -0.71947813291006      0.32108140775526
  O           1.18174160762672      1.47596601182525     -0.09257049844365
  C           2.53517632650877      1.54085655843272     -0.51353880762741
  H           2.60739237768611      2.37642740636331     -1.20631564683395
  H           2.82806669117181      0.60741791620392     -0.99874566592463
  H           3.18367886356441      1.70962974212799      0.34863299550107
