22
Coordinates from ORCA-job TS E -34.577971490330
  C          -1.36169171597268      0.45490130305817     -1.64378955217310
  C           0.01191339214378     -1.74783509093629     -0.43564490937666
  C          -1.24488112891199     -1.85044604225330     -0.92511287441057
  C          -1.91265750273961     -0.78310682469725     -1.57048449187005
  C          -1.23429343075085      0.91840180959258      0.54786463565823
  C          -0.50227807861634     -0.04798177204048      1.16494923993500
  H          -1.83870312444704     -2.72216804903412     -0.68744081208335
  H          -2.95408673784709     -0.92286475643089     -1.82333615009281
  I          -2.42920588810793      2.05829674420094     -2.50323995677808
  H           0.43911113803476     -2.54006773040919      0.15555969242669
  H          -0.30122506651725      0.62864262570359     -1.64835354761593
  H           0.70861208741469     -1.02230026115905     -0.81432388892379
  H          -2.30641640442771      0.92746330932230      0.65034439314073
  H          -0.97705442727877     -0.83443041384085      1.73026381638746
  H          -0.76594554256718      1.84774578005389      0.27205810341630
  C           0.94281701929210      0.08717938866354      1.39938146630782
  O           1.56707755962628     -0.54421376918499      2.21600954519212
  O           1.51249187052109      1.01213671899921      0.59733157147934
  C           2.90103761830840      1.22598253240865      0.79591870531048
  H           3.20877793883467      1.94835980486610      0.04388931117649
  H           3.45149723234311      0.28984612959799      0.67943884390448
  H           3.08510319166557      1.61645856351948      1.79871685898917
