15
Coordinates from ORCA-job NEB_reactant E -26.872334345600
  C           1.23277589860299     -0.12210189039297      0.38809938535699
  C           1.59564943839605      1.12388855754331      0.67049501002223
  Br         -0.27896266759784     -1.11094277987063      0.98319584643695
  H           1.83867042960147     -0.70535462442122     -0.28319198904069
  H           2.49853295521697      1.48539302261660      0.18787793025630
  C          -0.52499675461962      0.31548171112686      4.14551924706708
  C           0.33516442399683      1.09137629570873      3.48983304769199
  C          -0.01679279201613      1.90257557777340      2.28226416928839
  O           1.09786573184173      2.11264859884311      1.43087750334143
  C          -0.15480729195828     -0.39969814890932      5.30075674843372
  H          -1.55016622780453      0.19148323247612      3.82243329834655
  H           1.35958303067930      1.18747418323438      3.82613824846424
  H          -0.29137580736855      2.91552453892373      2.60410982086491
  H          -0.86622358149099      1.47568099354822      1.73986838642887
  N           0.14118321452059     -0.97652926820034      6.24622334704104
