15
Coordinates from ORCA-job NEB_product E -26.872515315940
  C           1.35900341017368      0.40917352483279      1.69230039081705
  C           2.76229361279322      0.93605241429778      1.89943196079534
  Br          1.45246549435187     -1.54137219825694      1.49085410024965
  H           0.99132435229377      0.77793630081698      0.72770258995840
  H           3.52630577746265      0.40209831488157      1.30677437044892
  C           0.39776524761804      0.83388269413083      2.81167312326866
  C          -1.02950106866108      0.46278308369174      2.50279049377632
  C          -2.00164484197141      1.34678674633366      2.39466429770624
  O           3.02990582441721      1.84992857614401      2.61975173832266
  C           0.79051064318329      0.21690493153838      4.06398396444550
  H           0.49214785111804      1.92190693340440      2.92918732124876
  H          -1.21319882251228     -0.59571515093339      2.37737573339826
  H          -1.83384180867857      2.40357478757994      2.52730621295216
  H          -3.01071718491662      1.04745676806746      2.17185888197833
  N           1.08368151332819     -0.29349772652921      5.04184482063376
