16
Coordinates from ORCA-job NEB_product E -30.497150497000
  C           2.85388725780796      0.24117102748271      1.82789682782218
  C           1.50420477388528     -0.02391196524198      1.23639344713464
  Cl          4.07211614397544      0.12037987248421      0.53634672537619
  H           2.89672129985454      1.25751822968786      2.23057950439528
  F           0.54157536203081      0.26987794576560      2.16188080360590
  C           3.14754809551979     -0.75402040513986      2.97724540739718
  C           3.13825218549625     -2.17168287824381      2.46424078761731
  C           2.27487654638649     -3.08749633704892      2.85937565644694
  O           1.18978444640626     -0.42884827635492      0.17966779834680
  N           4.39512007683907     -0.35360542425505      3.60218271615704
  H           2.35165099291160     -0.62658549905508      3.72246736163847
  H           3.91831974859615     -2.40810957934693      1.75345566906037
  H           1.49351547600883     -2.86335183911697      3.56759403527065
  H           2.30799182664204     -4.09703909900833      2.48793835391596
  H           5.15697138873239     -0.42259199976618      2.93441039982549
  H           4.60436437890709     -0.96060377284235      4.38602450598959
