24
Coordinates from ORCA-job NEB_reactant E -37.011645415310
  C           1.63290977466554      0.25335638110468     -0.29938825210790
  C           1.60384627316865     -1.06814451066733     -0.52764712406778
  C           1.49527202479403      1.40457336437557     -1.24182129963679
  H           1.76597401711119      0.55859590589455      0.72928778521056
  C           1.74100134396943     -1.90426732717940      0.62307544993285
  C           3.20143729304931      0.16994120214935     -4.12628228708112
  C           2.91777191730992     -0.81209068226875     -3.28614597749596
  C           1.52098374002939     -1.24034775858731     -2.93728510598547
  O           1.43096754852244     -1.81406483031891     -1.64699411654576
  C           4.56554184762811      0.62842134042735     -4.53538672260616
  H           2.38950075040917      0.71633604386256     -4.59474361405182
  H           3.69219999738449     -1.39281966334320     -2.80782896211152
  H           1.21525628123213     -2.06277608955630     -3.59569462123323
  H           0.80466811429539     -0.41935919191264     -3.05924771296304
  F           1.87775948964835      2.56033758272273     -0.60478398590876
  H           0.45055221841870      1.56142275490091     -1.54505545166198
  H           2.13447723275044      1.31438912826239     -2.12723574744982
  N           1.85850509689018     -2.55881949318491      1.55482171695371
  C           5.72024649314932     -0.10884403880681     -3.87149794960327
  H           4.64294665252257      1.69846822101915     -4.31629203623245
  H           4.64303985963648      0.52642962646779     -5.62261044599960
  H           5.67991485893335      0.00549982839984     -2.79084772278358
  H           6.66661932319829      0.29594537452321     -4.22164625394714
  H           5.69160785128313     -1.16828316828451     -4.11404956262396
