18
Coordinates from ORCA-job NEB_reactant E -34.910130742190
  C           1.43316202713947      0.32649672048188     -0.83757258275157
  C           1.59927229693710     -0.85163111372249     -1.42539581323859
  H           0.91607924100216      1.14415495718710     -1.30357940090884
  H           1.82780108636176      0.50607038454305      0.14380084299867
  C           2.35236543051592     -1.97548199120643     -0.74316779739496
  C           0.66076154584231      1.99557980798082     -4.22662465204444
  C           1.19295216285882      0.81518809387847     -3.91523041080359
  C           0.39936506785722     -0.35048863634467     -3.41281779505189
  O           1.16388917500977     -1.25208296728771     -2.64363223211544
  C           1.43016020154287      3.06305969172976     -4.72929411882443
  H          -0.39727300166475      2.19696857966218     -4.11228038624381
  H           2.25271331917601      0.63623062984317     -4.03921388326230
  H           0.06187833426618     -0.95040560872787     -4.26696075578148
  H          -0.48431891342511     -0.01737108658670     -2.85126980794939
  F           1.56585861847359     -3.06765393246589     -0.59495946292018
  F           3.41423079117557     -2.36711158567895     -1.48591649919204
  H           2.72192315711677     -1.68559405774832      0.25172852292365
  N           2.04277945981435      3.94457211446261     -5.13121376743934
