18
Coordinates from ORCA-job NEB_product E -34.919118076500
  C           1.75037653894454      0.01676729860104     -2.02966179117570
  C           2.26978466271479     -1.35652772623953     -2.33328837714452
  H           2.59823256525275      0.67295746427248     -1.80958345108270
  H           1.14997178192209     -0.05073339677744     -1.11568269810314
  C           3.21957925624864     -1.90299270987431     -1.23565073990911
  C           0.89746297630999      0.58396581326983     -3.17609292658746
  C           0.17440425553517      1.83486832011850     -2.74877571197152
  C          -1.13349360603638      1.98448620130792     -2.82319112053264
  O           1.99265021543679     -2.02407404475945     -3.28777642264865
  C           1.75489611212595      0.90786603019099     -4.29863165009811
  H           0.18048990652036     -0.17644202805280     -3.50680840809605
  H           0.80912830841790      2.62734217512880     -2.37589537776995
  H          -1.77720425702272      1.20676974306543     -3.20090819664375
  H          -1.61670565444264      2.89354360473921     -2.50998474649616
  F           4.22624541039491     -1.03020361209252     -1.00454078151596
  F           2.53570759320641     -2.01692627747629     -0.07047523747458
  H           3.64562736785426     -2.88219454617145     -1.49499029403966
  N           2.44514656661718      1.20092769074960     -5.15996206871034
