28
Coordinates from ORCA-job P E -36.227673894220
  C          -1.32128074038286      0.29211527701431     -2.38778658225005
  C          -0.13632176261321     -1.79477525007874     -1.01468646186672
  C          -1.48209890563218     -2.00581938783402     -1.62911723479823
  C          -2.04057834464444     -1.02245007416638     -2.31590571137183
  C          -0.88120493554179      0.65711849377836     -0.95635651966003
  C          -0.00101510226945     -0.42633095471700     -0.31280626355584
  H          -1.94790640793238     -2.97371795798466     -1.52207572394791
  H          -2.99740246046139     -1.11991700966439     -2.80478342953144
  C          -2.15825864316098      1.39491421314021     -2.97359881304857
  H           0.10540044554320     -2.59541686719388     -0.31422317037915
  H          -0.41145888018705      0.16908407210797     -2.98759104000794
  H           0.61451663834343     -1.80836128278727     -1.81186264030689
  H          -1.77715186457283      0.80859082122873     -0.35216000472264
  H          -0.32452051268746     -0.54625188684918      0.73824339430154
  H          -0.32742898231392      1.59693053621916     -0.98104418884974
  N           1.39805141777166     -0.02329503143206     -0.40591368920103
  C          -3.45060208589747      1.62138342188180     -2.51395271525412
  C          -4.21804937217961      2.64493911270843     -3.03911133408920
  C          -3.70284994344296      3.46135759593260     -4.03168473608161
  C          -2.41616948527318      3.24714709972851     -4.49406973523448
  C          -1.65089042234388      2.22138329280338     -3.96742937866611
  H          -3.85948086463391      0.98837867110075     -1.73903084356662
  H          -5.22173920784830      2.80721848819943     -2.67289807209852
  H          -4.30206239259470      4.26073021569577     -4.44254479815182
  H          -2.00735339846582      3.88036579536395     -5.26832610461421
  H          -0.64666810600602      2.05880084350845     -4.33341230666177
  H           1.55817088170020      0.83192832418100      0.11592457824711
  H           1.99779343772733     -0.74136057188523     -0.01296647463216
