28
Coordinates from ORCA-job R E -36.153468235010
  C          -1.36000165007969     -0.52997283890248     -2.89734185665574
  C           0.12329487614961     -3.09655818744976     -2.28397549842145
  C          -1.11013508860386     -2.78277900649305     -1.89313578148742
  C          -1.77353093850653     -1.50932761414084     -2.07847756555231
  C          -1.42009462530074      2.44304196532484      0.08079366848054
  C          -0.74272992080228      1.30450591780372      0.14053278348531
  H          -1.68962481061799     -3.52572099665297     -1.35880787527916
  H          -2.66913587998624     -1.37104108237118     -1.48867475530157
  C          -1.97405834051820      0.77304802730646     -3.06794500719526
  H           0.54053214518360     -4.07100594208046     -2.09835835396511
  H          -0.46864605760797     -0.68878300888107     -3.49129743839816
  H           0.76436836159502     -2.39869770116950     -2.79570767312947
  H          -2.19333308699598      2.67256786038455      0.78933629319975
  H          -0.95580308298761      0.56634122014704      0.90234949835893
  H          -1.21618261643078      3.18128741029360     -0.67613206895823
  N           0.33479777536243      0.97762530048108     -0.66379840540673
  C          -3.20290307621649      1.12449149791717     -2.50444143932299
  C          -3.72356161652651      2.39096422661010     -2.67841648445163
  C          -3.03167924322423      3.33959231532909     -3.41398606645331
  C          -1.81413828448616      3.00750313803953     -3.98504056690290
  C          -1.29527738452145      1.73899486457739     -3.81784711706751
  H          -3.75934259271817      0.39969089473281     -1.93112982155167
  H          -4.67517133434063      2.64433250414152     -2.23463476796168
  H          -3.43944945291741      4.33123659125937     -3.54274566269143
  H          -1.26928171765221      3.74082670211003     -4.56215910288813
  H          -0.34438148760966      1.48737766721443     -4.26849713940199
  H           0.41417112112851      1.55737964648006     -1.48753127844617
  H           0.43146800923164     -0.00559137201150     -0.86608051663452
