28
Coordinates from ORCA-job TS E -36.134566028920
  C          -0.01490190613054     -0.50754101201596     -0.46830033109543
  C           1.47286562589349     -2.63873088221754      0.71654153117200
  C           0.14146299157093     -2.74095858431897      0.46247193805791
  C          -0.59721375276922     -1.71303069524391     -0.14353960813322
  C           0.62286076009276      0.15996047877648      1.51172856004701
  C           1.52067334799578     -0.70818644839945      2.07506562447222
  H          -0.41308076008938     -3.56013201547819      0.90209300968854
  H          -1.67351301437540     -1.80389573934334     -0.15315831851684
  C          -0.77776032218084      0.63300008765613     -0.96950581716979
  H           1.97438066215766     -3.40054289127693      1.29302374509989
  H           1.02411511062425     -0.50764807916472     -0.76662961099270
  H           2.11314630237821     -2.02565739195687      0.10854164650932
  H          -0.38857305076304      0.17514621298784      1.87157579458644
  H           1.20973529515945     -1.41429185883632      2.82796113663025
  H           0.98473775440755      1.07684142380414      1.07739044444969
  N           2.88718173950204     -0.46053899270103      2.05300397004668
  C          -2.09312914764392      0.87748415419471     -0.57396725912186
  C          -2.78669604901977      1.96953244228123     -1.05834514141856
  C          -2.18145735018414      2.84655437220426     -1.94350481191729
  C          -0.87182533951438      2.62525353501341     -2.33594921146160
  C          -0.17720541459627      1.53493873167189     -1.84905355013662
  H          -2.57223940048669      0.21157043249514      0.12812382372550
  H          -3.80520417477855      2.14241178773670     -0.74098607427847
  H          -2.72514282998013      3.70028481500544     -2.32052792336420
  H          -0.39070543369977      3.30764671280794     -3.02213668924356
  H           0.84503411446321      1.36865654104324     -2.16122613000710
  H           3.19275887837529      0.11580345709782      1.28180266740869
  H           3.47969536359141     -1.26393059382314      2.19750658496311
