24
Coordinates from ORCA-job NEB E -53.356328267190
  C           0.62021753326508      0.19707077033523      1.06099747818325
  C           1.00751047722770     -1.20949682837668      0.91884511100090
  O           1.54933712371292      1.10307229674234      1.14185802666369
  H          -0.42366104583188      0.53236477126289      1.12696301539941
  C           0.59011820387939     -2.05036035556874      2.08791224010363
  C          -0.40355046528410      0.27260810776910     -1.79854756078105
  C          -1.13486814596646     -0.76146159680305     -1.40684885569630
  C          -0.53575658625383     -1.97642387022811     -0.77561376267340
  O           0.80138491158144     -1.78199528939470     -0.33806137829684
  C          -0.98281991836387      1.52257007162051     -2.36562822885386
  H           0.67283888531427      0.27541649516647     -1.70600971793720
  H          -2.21013083987840     -0.76322405101448     -1.52320581211365
  H          -0.48364271640696     -2.77829349075059     -1.52136942880406
  H          -1.18162519055702     -2.32302107998779      0.03998382067747
  C           1.18612435077643      2.46266881289799      1.31744558636563
  H           0.46827068528986      2.78212240877901      0.55891516332149
  H           2.10311247268901      3.04133555751967      1.22853041124217
  H           0.75085220726409      2.61353345806685      2.30863129836274
  F          -0.77632937133756     -1.93411244211988      2.40387732703749
  F           0.77152476961089     -3.36011934240348      1.84744753386980
  H           1.11925897314001     -1.78348392447999      3.01447139559981
  F          -0.84523331890220      2.55780129617436     -1.49405502891088
  F          -0.37235672956861      1.91728522372544     -3.49121909785642
  F          -2.29057626540019      1.44414300106761     -2.63531953590379
