24
Coordinates from ORCA-job NEB_reactant E -53.460983751150
  C           1.49681719829047      0.19236895091870      0.33729973521646
  C           1.24375713419161     -0.68320223759706     -0.64525648399265
  O           1.39650835135603      1.52577485401140      0.16272597881748
  H           1.80897185310030     -0.16115692745365      1.31270056789682
  C           1.33238483312436     -2.15897612012307     -0.36626166019612
  C          -0.66620456445941     -0.72573844754827     -5.05427764443056
  C          -0.27807105059585     -0.20097321857078     -3.90344216257503
  C           0.04010917589788     -0.99813937410011     -2.68319515116127
  O           0.96073800073853     -0.24438030828938     -1.91139838397918
  C          -1.01470723090038      0.10264871705206     -6.24821934661163
  H          -0.77407949273993     -1.78742808313466     -5.21749594964374
  H          -0.17159044659806      0.86818238297361     -3.78183988973833
  H           0.45265399540863     -1.97698075656912     -2.95724373065586
  H          -0.88936671338526     -1.16046095080511     -2.11553753159297
  C           1.82399631225985      2.32014112375206      1.24686133810851
  H           1.63509673829968      3.35209724040134      0.95869256772160
  H           2.89319258795815      2.18720881625761      1.43934839545010
  H           1.26215335586251      2.08782549145486      2.15729563649967
  F           0.10330916564733     -2.75572769041367     -0.36904286214232
  F           2.05098300523341     -2.81410350958951     -1.31094985129061
  H           1.78940525210229     -2.36692489693838      0.61144975821150
  F          -0.87086876815668      1.41884908046579     -6.05167205366412
  F          -0.25892940756329     -0.21058815326293     -7.31626733055463
  F          -2.29205928507217     -0.08691598289174     -6.63327394569313
