19
Coordinates from ORCA-job NEB E -30.509532920930
  C           0.68346692912195     -0.59310267634975     -0.75444688620658
  C          -0.62024843729142     -0.14400293781748     -1.06734271077492
  C           0.88315925744697     -1.89034495054891     -0.22753812185789
  H           1.49654895312076     -0.26303645827263     -1.39404317910019
  C          -0.76468018359318      0.95675645300007     -2.08725742355768
  C           0.99342744965095      0.40589692431060      0.95928841178455
  C          -0.10536054540252     -0.04824965576895      1.70542809757126
  C          -1.39507103492209      0.29105370292514      1.30746439859626
  O          -1.59902836058230     -0.44830233192375     -0.31596438430301
  O           2.26760157564710      0.10838371220234      1.29935466310497
  H           0.95486807398678      1.39874169635796      0.52045650080786
  H           0.03590081565853     -0.94280011085478      2.29819183147913
  H          -1.58538693909297      1.29876254472874      0.96273342854368
  H          -2.22581601876577     -0.16824219147425      1.81986097876009
  N           1.08026735172524     -2.93397165925255      0.20401492528919
  H          -0.31052216026924      1.87535927904501     -1.71136205033565
  H          -1.81872710250744      1.14082216117475     -2.27668781909351
  H          -0.27133020005184      0.68950773689792     -3.01842506512394
  H           2.30093057612047     -0.73323123837948      1.77627440441637
