19
Coordinates from ORCA-job NEB_product E -30.541547421400
  C           2.68140766084473      1.61563476387248      1.05441696414913
  C           1.41885717086440      2.31179201820913      0.52804265190219
  C           2.74175177940916      0.24157257657999      0.62546209227521
  H           3.54871919854090      2.13692857809306      0.62633851153868
  C           1.07432182799094      1.97180946433451     -0.89208075867022
  C           2.80402674670055      1.72401583048019      2.59463663566531
  C           1.89305460327303      0.73785201810767      3.27225520213866
  C           0.74196637355408      1.06856610416911      3.82477199791890
  O           0.78451162514812      3.07021157695070      1.20882345903746
  O           4.16574788606977      1.50338143275876      2.90332155792673
  H           2.51071344077620      2.74979208365845      2.87062731748952
  H           2.24941372625349     -0.28404671825567      3.26636095817701
  H           0.38490091558944      2.08509201199819      3.81673159100038
  H           0.10511839025304      0.33520037643537      4.28846676456229
  N           2.78182143608927     -0.85195055202315      0.29507263794022
  H           1.95126043176985      2.03826947353972     -1.53192262707229
  H           0.29268021261740      2.63396765553761     -1.25557822204804
  H           0.71629550809962      0.94316635363529     -0.92789852449280
  H           4.25883106615603      1.40854495191857      3.85665179056165
