21
Coordinates from ORCA-job NEB_reactant E -54.969045601730
  C           2.01307002311772      0.50153703515345     -0.55255658096130
  C           1.46733113134515     -0.41666328732552     -1.36903424038155
  N           1.76479409388113      1.90313682695373     -0.53309426776195
  H           2.72220358793164      0.16777708584520      0.19398412782037
  N           1.82479737418287     -1.85060097858834     -1.06746564710572
  C           2.09964944213805      2.65769812145853     -3.61837791066851
  C           1.82654718947625      1.36306427814675     -3.66306312120376
  C           0.51950597766543      0.78118745374604     -3.21936957825109
  O           0.71100046923104     -0.39732642355979     -2.43836121838383
  C           3.37466343567891      3.28614077914095     -4.05187460495599
  H           1.37444533821478      3.36877449366483     -3.24475080356480
  H           2.55116172871368      0.64915174008464     -4.03037554367418
  H          -0.05029956344097      0.42531883374115     -4.08288137354538
  H          -0.06919541425129      1.51992590956076     -2.66328719437857
  O           2.66239849832205      2.60976370609108     -0.14050563208513
  O           0.66673079430912      2.29521908220845     -0.88106958330349
  O           1.49894601304911     -2.65596650998852     -1.89116661724828
  O           2.39924038201225     -2.06015720502493     -0.03257476571128
  Cl          3.03046133372991      4.44402254105388     -5.36906788593577
  Cl          4.07439260863630      4.18088061168689     -2.66719598457154
  Cl          4.57615555605688      2.12461590595079     -4.63251157412825
