21
Coordinates from ORCA-job NEB_product E -54.963366356470
  C           2.61951319473922      0.79856962121597     -1.59389639082894
  C           1.57462478016523     -0.23366416932006     -1.27967357484538
  N           2.70598442822069      1.74280223864335     -0.42298274603255
  H           3.60428504330994      0.32497630200354     -1.70454562166325
  N           1.73399547191219     -1.51509346261445     -2.15882543214747
  C           2.25682577124294      1.49837039428554     -2.93332440923568
  C           0.89137213467367      2.13317428725052     -2.89716159595657
  C          -0.11126431050752      1.70195183064445     -3.63847606938967
  O           0.69001747767884     -0.21593571281275     -0.50225124434574
  C           3.33040447230328      2.51401233124945     -3.35342238301685
  H           2.27567281622591      0.71657107180154     -3.70313202759328
  H           0.76870838490472      2.96090504452203     -2.21599755661794
  H          -0.00755924486441      0.87692676647989     -4.32517191384568
  H          -1.07980558324120      2.16619079327924     -3.59239012129034
  O           3.76549212985332      1.75575769771260      0.14117767904061
  O           1.72103451517835      2.35581383369168     -0.13030249781366
  O           0.93870514896271     -2.37950589929239     -1.93932367568085
  O           2.62114597453424     -1.50600097540438     -2.97521032183936
  Cl          2.90933143767960      3.10699292290034     -4.97902905768131
  Cl          3.43152908206158      3.90801307408676     -2.25251919650977
  Cl          4.93368687496667      1.73517200967714     -3.43754184270632
