19
Coordinates from ORCA-job NEB_reactant E -34.767757061840
  C           1.66709735034455      0.04898171261275     -0.01208657277361
  C           1.52075401294014      1.35691254441486     -0.32012307723420
  C           1.64120285516068     -0.54619835231595      1.24706204716631
  H           1.82117850178813     -0.62625360742927     -0.84068053758570
  O           1.57811088991589      1.68544416394222     -1.62198392524087
  C           3.30739606877250      3.23327099435024      3.01588733007326
  C           2.72133839856093      2.20885920786757      2.42625143128871
  C           1.32155575563033      2.28451416345481      1.89830784215067
  O           1.29894315212607      2.41343365561198      0.48111829712178
  F           4.56258619104037      3.16584924878235      3.47092878710361
  H           2.86054843717169      4.19976277399919      3.20525462223071
  H           3.25534042223115      1.28082944696433      2.28825399489632
  H           0.82638829105315      3.19138250336222      2.25416938106296
  H           0.74800127554803      1.40600569241715      2.20807001313058
  N           1.63349051396326     -1.09406189131439      2.25923631032362
  C           1.42622789250867      3.04799712029705     -1.97646383930971
  H           1.51876548568863      3.07472524757957     -3.05986294558499
  H           2.20430394719958      3.66301753534489     -1.51876257140519
  H           0.44697055835625      3.42622784005843     -1.67487658741426
