19
Coordinates from ORCA-job NEB_product E -34.787945844840
  C           2.94167697226839      1.41358669301047      0.63877498602322
  C           2.06185295866742      2.35436446532716     -0.19189822113672
  C           2.38617349076125      0.08068821858980      0.58459574865271
  H           3.93862898108055      1.38611872439831      0.17956675691077
  O           1.89297141345242      1.86701002107117     -1.41357392714594
  C           3.07594393152031      1.92487677224646      2.09201739069870
  C           1.91311205690282      1.51553618217741      2.94562124820351
  C           0.88006357610174      2.30001991675409      3.18250359119427
  O           1.60546585356291      3.38830078715536      0.20844821407655
  F           4.24657562777527      1.41397871735634      2.61364745095060
  H           3.19124425227000      3.01591905188426      2.06942150864370
  H           1.97781097885899      0.51217570780922      3.34243492466095
  H           0.82207323706092      3.29540784943281      2.77454649720139
  H           0.04799583925059      1.96858232985339      3.77846580367535
  N           1.93381719934542     -0.96716426420502      0.55244210693175
  C           1.08010110672349      2.63387449068569     -2.29673788929801
  H           1.05272322794456      2.08333357250445     -3.23281270086997
  H           1.51348032818697      3.62490074528537     -2.44326336287957
  H           0.07578896826595      2.74289001866324     -1.88430012649328
