21
Coordinates from ORCA-job NEB E -42.260779794700
  C          -0.11050610368685     -0.74003650199912     -0.86415559450404
  C          -1.06498904638950      0.31799863082029     -0.78725228252548
  C          -0.65205009195451     -2.05429048897055     -0.73412531427736
  H           0.59747007847968     -0.67976350327971     -1.68840702345360
  C          -0.81750529334292      1.56776130597294     -1.60395591586775
  C           0.84432924609439     -0.61119999165635      0.71686660570734
  C           0.09070515456912      0.16121092576824      1.63894616739683
  C          -1.30791010968669     -0.13325771546243      1.64653430353772
  O          -1.82815899314060      0.41104565110411      0.24347671575918
  C           2.21376984013182     -0.07371365565238      0.36229387558774
  H           0.90233235017157     -1.67736483206263      0.92842764686617
  H           0.35637684100739      1.20793836492684      1.73417600570717
  H          -1.92790141949596      0.43664069512184      2.32868471012562
  H          -1.56704310105857     -1.19092780562045      1.63634226899536
  N          -1.08570613343357     -3.10889540999469     -0.64383270764376
  F          -1.84879183670174      2.44978201778421     -1.47436402610411
  H          -0.71679121050578      1.33032157217167     -2.66867113808498
  H           0.08972564880231      2.07869541982467     -1.24776296289527
  F           2.83067375185764     -0.85939549340170     -0.55194211774090
  F           2.12504182301769      1.15635005465119     -0.20828645144789
  H           2.87692860526505      0.01110075995400      1.23700723486201
