21
Coordinates from ORCA-job NEB_product E -42.310890741850
  C           2.93097890279212      0.28483006905209      1.30209025864946
  C           2.07374462886495      1.53765434702025      1.09730534467471
  C           2.05867460745039     -0.85876710711598      1.15818136523221
  H           3.70321712151704      0.22341305667556      0.52628312295995
  C           2.27462867231047      2.25964874905379     -0.22291235528115
  C           3.61264052440784      0.24601692261846      2.69757392202192
  C           2.63661386766754      0.41915236612563      3.82921263061414
  C           2.06009557897212     -0.59832502943119      4.44005665284858
  O           1.29014499300713      1.94109700468036      1.90897530968325
  C           4.70211362845142      1.31682246153918      2.74909081312509
  H           4.11516845014107     -0.72417808243388      2.78775334914304
  H           2.40437570776966      1.43849147360986      4.09968912360550
  H           1.34836684866400     -0.44637563367750      5.23159876692519
  H           2.26461074753742     -1.62065366747053      4.16678053387790
  N           1.37405311567009     -1.76620414499094      1.05320242508597
  F           2.95903861914033      1.51859028783398     -1.14439565341262
  H           2.85430934169392      3.17194042227703     -0.03321090793880
  H           1.30503100277597      2.52557415614727     -0.65587208489178
  F           5.69227233946852      1.03332599118803      1.86720325362452
  F           4.22778410331744      2.53465867198402      2.38840940711572
  H           5.15433719838055      1.41288768531450      3.74738472233719
