71
Coordinates from ORCA-job A2R E -110.611298123430
  Ru         -0.61823045357461      1.97013006725740      0.08192865156849
  H          -0.49445758135757      3.50775158375010      0.16661146443812
  N           0.86688740830614      1.90953358968641      1.58018970243438
  C           0.57945789698849      2.32062209629649      2.82615122742943
  C           2.11333081108953      1.48317825414252      1.31685445814833
  C           1.52158682495416      2.28922346727634      3.84527261235422
  C           3.09671425740975      1.42980703752397      2.29370850430419
  C           2.80057498101816      1.83177276307468      3.58295852861737
  H           1.24900561864032      2.63021836294564      4.83220425667626
  H           4.08046494399520      1.07347453879247      2.03526815544905
  H           3.54739509661197      1.79816490468220      4.36018222045844
  P          -2.00604578634394      2.13651948289020      1.91102851182367
  C          -3.42642642319967      3.39351605645454      1.96262221124376
  C          -2.52670418294227      0.53970653866833      2.81057238087801
  P           1.18514673694464      1.82360045200185     -1.16698905864038
  N           1.52403581651893      1.03155091532426     -2.76889568280011
  N           2.16445786629799      3.31712787064785     -1.58807837103771
  C          -0.78587197600328      2.87640612302670      3.08798534934018
  H          -0.76327416766295      3.94393382657297      2.83447504359602
  H          -1.06906335080064      2.77087783571470      4.13827128195671
  C           2.43066420605272      1.03440080205851     -0.07703098596286
  H           3.46503708004680      1.25638333723712     -0.35648409044220
  H           2.26899782326396     -0.05380007565331     -0.13027148001029
  C          -1.92648471422939      2.03555151968127     -1.22681541659199
  O          -2.75348636600055      2.06159901460785     -2.02414592756435
  H          -0.68856676205947      0.42227830345319      0.09743487061691
  C          -3.70951748571371      3.97409437507027      3.34906541035096
  C          -3.04894300155427      4.55041798136940      1.03530735168119
  C          -4.67341148161964      2.72372860571662      1.38299148789211
  H          -2.87103030301368      4.56607188447304      3.70798122557689
  H          -4.57176992027416      4.63620481991571      3.27665898528148
  H          -3.93980785380973      3.21362989958626      4.08575994655515
  H          -2.92491447135092      4.20027067445225      0.01234151623032
  H          -3.83928342362936      5.29981367239253      1.05047168358163
  H          -2.12359301130429      5.03238988756282      1.34326343785433
  H          -4.41286359497396      2.17657684108694      0.47568042738250
  H          -5.13510510322600      2.04272527644868      2.09307543731355
  H          -5.41180061963089      3.48048063967381      1.12142486641896
  C          -1.22656287808578     -0.19427236877850      3.15743893388516
  C          -3.32274456264697      0.72230278137952      4.10103791817708
  C          -3.32522555349309     -0.31314060391159      1.82196088842636
  H          -0.68467232210952      0.30417658179733      3.95939663159495
  H          -1.45625786281104     -1.20458987880103      3.49340604135647
  H          -0.57485506527472     -0.27239701200394      2.28807024005672
  H          -4.31797503607641      1.11496447007916      3.91439310849206
  H          -3.44101566022255     -0.25160538777452      4.57610770117368
  H          -2.80601778402858      1.37013021681003      4.80631426293978
  H          -4.34948659142755      0.03352654213932      1.72436125656915
  H          -2.85630863362119     -0.27612500107230      0.83791913891698
  H          -3.35482661185662     -1.34844307857170      2.15955069682553
  O           2.07577307231883      3.75262864432512     -2.71185139435473
  O           2.68564164638693      3.85028921412691     -0.63084357993686
  O           0.58116447602217      0.80745817155403     -3.48159028531351
  O           2.68712483583542      0.77337998326247     -2.98021821402894
  C           0.62521841743921     -2.25408252931071      0.07666168639508
  O           1.52911122450044     -1.81967642906204      0.76506452826132
  C           0.66397915428163     -2.16083861046851     -1.40011378082877
  C          -0.48868151872824     -2.04968284194947     -2.17679243344888
  C          -0.38906653014952     -1.95710842058315     -3.55136019782471
  C           0.85203309232073     -1.99964000633732     -4.16879379607626
  C           2.00284348840722     -2.11902338952355     -3.40643592346298
  C           1.90982901661664     -2.18342978780514     -2.02948474350775
  C          -0.57592986821480     -2.93566277802329      0.67271472243330
  H          -1.45821943168383     -1.99596261664804     -1.70703685748908
  H          -1.28154302476048     -1.84275647970350     -4.14649315744389
  H           0.92162795485104     -1.92642915937446     -5.24309874443554
  H           2.97156180447059     -2.14177952837450     -3.88140713303623
  H           2.79989985880137     -2.27192203579589     -1.42194070193648
  H          -0.39338703762682     -3.15222047964935      1.72237832361538
  H          -0.80105306090210     -3.85151021456376      0.13200122833597
  H          -1.43188434239616     -2.26849119325027      0.59335344126684
