71
Coordinates from ORCA-job A2S E -110.620753928190
  Ru         -0.18546042547956      1.43058342446581      0.47781464106066
  H          -0.27944998910593      2.85978809069359     -0.10490122009171
  N           1.05688253954366      2.19987207119449      1.97886356114275
  C           0.54648234521878      3.00651928409371      2.92348504171432
  C           2.36383763936812      1.89013462109486      2.03803062213974
  C           1.32058119008032      3.50339569468041      3.96348505027381
  C           3.18410793320875      2.34834165874631      3.05943414173496
  C           2.66019649036302      3.16840608868521      4.04176390822989
  H           0.87054692512439      4.15504677713981      4.69664761977260
  H           4.22590681218763      2.07054671824010      3.06620967591696
  H           3.28045812959140      3.54398445583746      4.84015755903917
  P          -1.83076483809980      2.06500698292373      1.93603839796770
  C          -3.38449929745065      2.98254066743709      1.34848571273051
  C          -2.28913238630064      0.87240716089601      3.35372041482824
  P           1.83033225615689      1.19918681379196     -0.48112813660726
  N           2.90266792871194      0.71153845509916     -1.89433281898810
  N           2.37621992149804      2.94944049181099     -0.81094707520248
  C          -0.89338168867867      3.39898046892150      2.80854000248857
  H          -0.95016728780827      4.26333904630133      2.13461213641412
  H          -1.31474965466690      3.67702980076970      3.77802327627724
  C           2.93798358691821      1.00741828112727      0.96993335503471
  H           3.97581401347069      1.27154513952225      0.74200452089215
  H           2.88826727383576     -0.04025023402222      1.27834989747441
  C          -1.27494089632477      0.68122965508050     -0.80126486240406
  O          -1.94182461096560      0.13415338019787     -1.57020554009505
  H          -0.04257331885152      0.05810401908865      1.16824108612939
  C          -3.93964617329031      3.99838735984091      2.34812256231638
  C          -3.01310477564540      3.73444420297093      0.06899353187219
  C          -4.44101346373903      1.93979682135309      0.97971714698071
  H          -3.23748269226833      4.81188092987504      2.51397312338223
  H          -4.85008481497217      4.42979531273511      1.93288521043606
  H          -4.19177474979600      3.55512361743445      3.30425878227213
  H          -2.69098611592281      3.04028729176866     -0.70507156002757
  H          -3.88107417431461      4.28271203814074     -0.29535745015428
  H          -2.21037012141796      4.44914532152140      0.23629356739520
  H          -3.98151622250820      1.13922012792281      0.39761000133384
  H          -4.91809154304120      1.51547704721387      1.85929643737831
  H          -5.21780568412442      2.39967590152644      0.37005333871692
  C          -0.98441724433303      0.55969303144245      4.09347224506981
  C          -3.29612692161747      1.39821304358617      4.37435158289305
  C          -2.80372941318377     -0.42400293803244      2.72405546843071
  H          -0.62325481279012      1.41677634837763      4.65942820964474
  H          -1.14968175413740     -0.25790505056020      4.79434938258393
  H          -0.21467509015963      0.24334367332390      3.39099787376834
  H          -4.28796549932431      1.51096752482843      3.94679992816536
  H          -3.37266857778947      0.67905908334376      5.18997191733466
  H          -2.97752262453859      2.34696858243625      4.80170980006281
  H          -3.81812730991401     -0.31993254322718      2.35189070905182
  H          -2.15807211290162     -0.71708741853514      1.89568435150757
  H          -2.79642912823302     -1.22565775289597      3.46136531034864
  O           2.25647516832867      3.29497918943735     -1.96749374248657
  O           2.70441771836472      3.66478612496356      0.11433050137987
  O           2.37592160822785      0.38507527644030     -2.91869930806547
  O           4.08499420019109      0.77459196123971     -1.67033320815596
  C           0.89669149096946     -1.85062518544436     -0.91433284315498
  O           1.73100535389386     -1.00826512948144     -0.56309125149724
  C           0.17544484183953     -2.62466492085833      0.10372350564760
  C          -1.07177908761515     -3.19683758460065     -0.15641727798687
  C          -1.77310484917322     -3.81984170048049      0.85768872308436
  C          -1.24134050573305     -3.89439321558980      2.13571071095323
  C           0.00025931469718     -3.33929261146224      2.40242230104764
  C           0.70005229755957     -2.70522252823830      1.39653903826355
  C           0.55658686007876     -2.06181801911972     -2.35367822466891
  H          -1.50982986257163     -3.12244780255809     -1.13865872755748
  H          -2.74449001344675     -4.24508912771349      0.65355222370087
  H          -1.79614748887506     -4.38277980322935      2.92327516816290
  H           0.41664348787228     -3.39560237096512      3.39744889928266
  H           1.66876615124946     -2.27069579191497      1.59193415527619
  H           1.33135018985522     -1.63846895149076     -2.98773260764775
  H          -0.36865233486179     -1.52677019080982     -2.57090562562810
  H           0.41281588756666     -3.11548818833257     -2.57669484858627
