71
Coordinates from ORCA-job A3R E -110.588483565650
  Ru          1.34936636697657      3.96819806229318      0.20918334563318
  H           2.63871978919842      4.74323504902765      0.14340280766757
  N           2.27953921437266      2.87334498866257      1.75522876954295
  C           2.33378300465249      3.33908156882986      3.01146505489635
  C           2.82425292336905      1.65413278269127      1.47641649906193
  C           2.76721507167327      2.56659493795252      4.07112732928696
  C           3.26731674385037      0.82206234278642      2.53101779816153
  C           3.20917887379831      1.26463205503144      3.82284783468451
  H           2.78531004477068      2.97564961966311      5.06850925237875
  H           3.64769815567929     -0.15619243075489      2.28637404985777
  H           3.53376465977174      0.63759098676421      4.63909281040376
  P           0.79672158969287      5.36059573181678      1.95875695459067
  C           1.13999143990431      7.21639280628713      1.85187113033574
  C          -0.86886672512188      5.02678269273100      2.80368636557864
  P           2.42463182734623      2.39813296465152     -1.04099550740926
  N           1.90810487269805      1.31159217017641     -2.42153372013385
  N           3.96740199544307      2.88737491903855     -1.90955010332409
  C           2.00847748297081      4.79109864997628      3.22197342776427
  H           2.93098833125996      5.35088850937188      3.02566363059631
  H           1.68925309829824      4.99803367108800      4.24593789840247
  C           2.93104411742813      1.24448854872090      0.13530813313634
  H           3.48106729076880      0.35611304075903     -0.13803047710372
  H           0.57667087282303      0.15567373536050     -0.28020576867540
  C           0.69370141721273      5.04834495253076     -1.14236905284195
  O           0.40500167292067      5.80802528776109     -1.95579653412244
  H          -0.18473356741602      2.54833047519295      0.19448865773539
  C           1.41823803939167      7.87401653676999      3.20445194254645
  C           2.38021394372940      7.37754203633531      0.96886559231114
  C          -0.03436030442411      7.90115697737587      1.15241174379239
  H           2.31771594869249      7.47253302066164      3.66423732857432
  H           1.57784252493468      8.93978293568698      3.04594706598748
  H           0.59231990479138      7.76457337008385      3.89843328406572
  H           2.18292579570911      7.03070841766477     -0.04436285200942
  H           2.66156211441516      8.42819002336674      0.92297144426198
  H           3.23026591842311      6.81902287651649      1.35735881654720
  H          -0.31308131926851      7.34814476687450      0.25586227861081
  H          -0.89998428493675      7.98708200072692      1.80438262749922
  H           0.25462997883485      8.90645360096188      0.85040096667044
  C          -0.77492016687143      3.58028516988435      3.30138875317796
  C          -1.23976319693801      5.92011663206699      3.98297534886432
  C          -1.94065346950259      5.11927211190377      1.71496557120636
  H          -0.16978074888829      3.50713018795671      4.20272229967006
  H          -1.76891596224492      3.20333972387895      3.53893885934160
  H          -0.33489261345720      2.92971798016879      2.54215974446595
  H          -1.43740828390295      6.94203081723781      3.67208538032735
  H          -2.15033379394383      5.53405342019096      4.44114874261752
  H          -0.46244116051773      5.92121820932650      4.74435502149571
  H          -2.14864173702563      6.15150787634468      1.44751124833428
  H          -1.60786156400072      4.59699466386295      0.81325976435120
  H          -2.87042472985814      4.66619351006522      2.05655606313836
  O           4.45261672981606      3.93785565619065     -1.56007767453770
  O           4.50245265452285      2.02293943890339     -2.57074719205279
  O           1.84316355655076      1.82206661314538     -3.51186324100251
  O           1.53759074904432      0.19731724842631     -2.11779124541243
  C          -0.76460098525688      1.55965624283091     -0.04090555454396
  O          -0.02362290818581      0.47227838281520      0.41654142314292
  C          -1.06280217195263      1.52630516019044     -1.52179069367500
  C          -1.20405070594683      2.69616204392203     -2.25253240312771
  C          -1.48688903901676      2.65214739475753     -3.60553264479953
  C          -1.63951578165419      1.43098963400862     -4.23868996207096
  C          -1.52917854646322      0.25910167632554     -3.50996669118756
  C          -1.24959507479207      0.30326688552915     -2.15647143767996
  C          -2.09371386938275      1.57005664988294      0.71774922983067
  H          -1.09057175200721      3.65270381144059     -1.75502006053385
  H          -1.57346245302365      3.57183810787421     -4.16322614672109
  H          -1.84096728982704      1.39320058871985     -5.29816461173001
  H          -1.65067901251897     -0.69648804579777     -3.99675479672409
  H          -1.16005330412478     -0.61241614911677     -1.59061492986772
  H          -1.92074845808776      1.47971006363904      1.78559725285110
  H          -2.67171749328060      0.70698667481596      0.39390465465591
  H          -2.65801035097186      2.47245254758967      0.50279965868106
