71
Coordinates from ORCA-job A3S E -110.592439779450
  Ru          1.44159306465219      3.71534058354141      0.18197516333141
  H           2.75120719659204      4.43937095146607      0.06173703843508
  N           2.24024623104811      2.83612906242092      1.92806514289027
  C           2.27943304609606      3.50576638979450      3.08947473400528
  C           2.71142718399003      1.55003951759948      1.88773611610484
  C           2.61163156713851      2.90443855106013      4.28649263342437
  C           3.04307432147799      0.88754326115375      3.09814454282482
  C           2.96720783208440      1.55123236991922      4.28790054987523
  H           2.62162601140301      3.47866113126412      5.19882064123751
  H           3.36312095923021     -0.14082002057463      3.04435127080731
  H           3.21221745398763      1.05716826870819      5.21593874945228
  P           0.86764570173513      5.38200965547260      1.66903677523512
  C           1.26931248194523      7.18605745873931      1.27243332599523
  C          -0.81997565608054      5.25155566634769      2.53871571687537
  P           2.48392395652663      1.89188945047728     -0.72455452069784
  N           2.22351780563650      0.70482863286700     -2.08307417868774
  N           4.16414834836238      2.29286206916502     -1.34858040212372
  C           2.03851018806471      4.98768370992003      3.03256928384397
  H           2.99033471093685      5.45138585266646      2.74599647949641
  H           1.72845227433801      5.39140421374069      3.99889912165463
  C           2.84993379019872      0.91077647621824      0.65079083078537
  H           3.33421135755213     -0.04804165939892      0.55031814622337
  H          -0.30545790722976      0.13483617283609     -0.89812340242793
  C           0.82261472188439      4.52072281672124     -1.36183130349069
  O           0.46433409668007      5.05037933683136     -2.31839766964974
  H          -0.13617762979089      2.74462050719380      0.23069711255466
  C           1.57590527543591      8.04149647764712      2.50250119571678
  C           2.50967969520551      7.16355216432970      0.37574382375525
  C           0.11490908292876      7.78627334314543      0.46998795993999
  H           2.47012011697541      7.69358839612704      3.01325602984326
  H           1.75969802623840      9.06474625816673      2.17740562988610
  H           0.75517016727689      8.06293921330143      3.21087601869915
  H           2.29447225602927      6.66446537412643     -0.56825537127552
  H           2.82477004497815      8.18354317371726      0.16253968350574
  H           3.34227980563945      6.64523947969840      0.84842806683054
  H          -0.18970766097186      7.09964025310110     -0.31963827399678
  H          -0.74167239284374      8.01176907069919      1.09995766689812
  H           0.43685939004573      8.71514931494140      0.00225070856708
  C          -0.80210713213138      3.88369831847465      3.23061907023713
  C          -1.13838140055211      6.31372006452850      3.58648015169472
  C          -1.89718665696520      5.25344800734335      1.45116829858909
  H          -0.20128445045949      3.90495264527673      4.13717968262152
  H          -1.81251279454937      3.58525064551298      3.50773979437292
  H          -0.40063764867041      3.10831005794649      2.57551852235153
  H          -1.28626190231532      7.29262180391534      3.13938193300564
  H          -2.06428737803479      6.03904273659893      4.09180628862291
  H          -0.35774526254232      6.37973221762774      4.34126030696684
  H          -2.11707291000590      6.26118248519134      1.11070866184218
  H          -1.56595275507275      4.67160146160480      0.58895072636389
  H          -2.82009776437455      4.81725352351479      1.83111991784101
  O           4.68222865152765      3.28366252170292     -0.88407683337558
  O           4.72061050206245      1.42644654016279     -1.99463664802436
  O           2.04544250322281      1.23610880455230     -3.15257832827335
  O           2.16285459648941     -0.46988097511000     -1.83808420048353
  C          -0.78846448960609      1.87536527191697     -0.10355032123796
  O           0.14468080818348      0.94935421771243     -0.63264117786549
  C          -1.48351965576988      1.30361009301454      1.11385199041729
  C          -2.80990785580493      1.57991789488689      1.42032678204597
  C          -3.38623592752034      1.04396101731594      2.55934630864936
  C          -2.64815628956080      0.23332888000830      3.40420005569912
  C          -1.32524693274863     -0.04540409751510      3.10476344828112
  C          -0.74776804525395      0.48516912821844      1.96714400989833
  C          -1.72750374329918      2.33798299901047     -1.21591621624594
  H          -3.40179788020655      2.21202663949640      0.77765375699347
  H          -4.41940839769083      1.26238480113979      2.78605844736068
  H          -3.10247383573299     -0.17998527370203      4.29198077826450
  H          -0.73989346198428     -0.67565738549456      3.75692585386996
  H           0.28572973405919      0.26937771294987      1.73387710277075
  H          -1.13487720350655      2.60220761463936     -2.09124040188108
  H          -2.31421679495799      3.20407162546949     -0.92465370324111
  H          -2.40356514162606      1.52751505693698     -1.48676909447616
