71
Coordinates from ORCA-job TSA2R_3R E -110.571755162270
  Ru          0.03272032940705      0.62843444533964     -0.67634602506108
  H           0.04940299756827      2.14819362600128     -0.76725585659148
  N           1.54908898353981      0.84376760414080      0.80883835041329
  C           1.27191512264863      1.40514330473000      1.99128266128826
  C           2.81962175293787      0.47440843164035      0.54180049722289
  C           2.23627344582379      1.56215583647409      2.97515423148051
  C           3.83202268883725      0.60971764690019      1.49377205409205
  C           3.53732854683943      1.14967100495294      2.72552163123772
  H           1.97163585476937      2.01620311925587      3.91700521791752
  H           4.83149242204937      0.29165035293287      1.24531302087456
  H           4.30340387278363      1.26463168673245      3.47636239048549
  P          -1.31654029911007      1.00272600094555      1.15737500286358
  C          -2.76292619072418      2.22346718778611      1.06517689490282
  C          -1.77404922403741     -0.48616863012890      2.24483027162584
  P           1.91687506868734      0.58395646372040     -1.93256754796143
  N           2.55857729630784      0.05496795986035     -3.55163061828104
  N           2.77153751038767      2.20688359955863     -2.05183071312692
  C          -0.11352436951793      1.92852412657903      2.20591604450256
  H          -0.13127343966118      2.95735447959573      1.82666931387005
  H          -0.38290201670316      1.93894612275427      3.26452303541635
  C           3.06699010556723     -0.14747887732250     -0.76054729886377
  H           4.10737888120918     -0.20751990012951     -1.07849034767817
  H           2.60897579604399     -1.34459643531999     -0.47878952528151
  C          -1.32833773161512      0.59854500546090     -1.92363096246161
  O          -2.21871693835262      0.66558954884286     -2.65028398087331
  H           0.14280999707131     -1.11494350584981     -0.63843036169745
  C          -3.03453536452504      2.95860561969948      2.37953752968369
  C          -2.41369497445638      3.26771724015435      0.00229997727247
  C          -4.01255495034772      1.47502318055374      0.59999587842058
  H          -2.21662845479127      3.62730570457425      2.63531800303587
  H          -3.92969905548010      3.56708040434742      2.25664232895795
  H          -3.20644007453790      2.28393312990386      3.21029035071999
  H          -2.33040081003667      2.81006333761764     -0.98103295611974
  H          -3.19913059275080      4.02099918663678     -0.03550145104542
  H          -1.47474584093139      3.77213723505109      0.22135942802409
  H          -3.77232488097466      0.82629586225873     -0.24226555230922
  H          -4.44636375144944      0.87977635429731      1.39908921545807
  H          -4.76684325191253      2.18811753606406      0.27101967020599
  C          -0.43867016551385     -1.14711676206832      2.60803418582101
  C          -2.52196071897197     -0.18310890535069      3.54048518915935
  C          -2.59946464630696     -1.44178207832446      1.37931075442307
  H           0.11615763069701     -0.54937181082800      3.32975978274650
  H          -0.62049003926667     -2.12148620317720      3.06064120525952
  H           0.19451898323389     -1.30303045031367      1.73363589621958
  H          -3.53025677558275      0.17522399524523      3.35290414691389
  H          -2.60458394711687     -1.10422377350654      4.11721791470130
  H          -1.99130720216371      0.54176731005049      4.15453006077327
  H          -3.64301526548392     -1.14412897661890      1.33852588853232
  H          -2.20994911011523     -1.46127004722949      0.35968944258436
  H          -2.55959702372645     -2.45140465594416      1.78492305133087
  O           2.51888275933635      2.94242797405652     -1.12239158820599
  O           3.64048030310706      2.35544088681309     -2.88058528124988
  O           1.94420899698631      0.54619609745518     -4.46809443879773
  O           3.49521513517307     -0.69383227509109     -3.60664763249121
  C           0.76364447688778     -2.27924821061633     -0.80758374111485
  O           1.81210354434692     -2.31152924060501     -0.01736196507592
  C           1.06934500501305     -2.38023503564597     -2.29169674393367
  C           0.19163411222121     -1.94686757193473     -3.27868612261309
  C           0.47375859631641     -2.17004967837028     -4.61489321415027
  C           1.63470775924331     -2.83209117201706     -4.97836947603770
  C           2.50640640861591     -3.28191332865941     -4.00008756403869
  C           2.22043904637795     -3.06734396111602     -2.66401728473419
  C          -0.29023679445288     -3.33456251051405     -0.46255283209022
  H          -0.72434603038323     -1.44044301201386     -3.00143047477951
  H          -0.21004279612762     -1.81574239395095     -5.37093317320995
  H           1.86046305424617     -2.99237011773417     -6.02143115424185
  H           3.41252201838734     -3.79841894167949     -4.27607008940929
  H           2.88815068539618     -3.42282636429948     -1.89310048336615
  H          -0.50650970705256     -3.32459081531631      0.60127638278031
  H           0.13313469357651     -4.30562140108374     -0.71597244363979
  H          -1.20176144746120     -3.18773156622344     -1.03551800068544
