21
Coordinates from ORCA-job NEB_product E -48.547969128140
  C           3.07361066361979     -0.06075000389675      1.65849556208257
  C           1.91681927995462      0.92421414802730      1.98777586992984
  N           2.63285419723987     -0.90552461250766      0.50614066778897
  H           3.93985454866317      0.50511178691920      1.29796438114238
  N           2.29766407810348      2.21052866495062      2.02780148366897
  C           3.46863105299510     -0.93591073785782      2.85733906017535
  C           2.33259621968357     -1.75535399454788      3.42039510391916
  C           2.48842728964721     -2.99964506628316      3.82661840604912
  O           0.79264058597540      0.54319476186288      2.18232270946943
  C           4.02825535620523     -0.04021049871980      3.96277508227049
  H           4.28639264651125     -1.60401732163754      2.55936724677048
  H           1.38141648174336     -1.24926740647268      3.48889979160139
  H           1.66742993626417     -3.55664413077342      4.24027098768422
  H           3.43298671647446     -3.51315179646297      3.75656035465545
  O           2.31099691169460     -0.29461393363298     -0.47976825121293
  O           2.65638391534096     -2.09859595499569      0.63119169373043
  H           1.60039329345712      2.89802053054686      2.26554528140960
  H           3.24772997480059      2.51605705220340      1.91233453806573
  F           4.61851645508367     -0.74806078077918      4.92577179472104
  F           3.10006703411899      0.72496500643417      4.54810211966432
  F           4.96163336242339      0.81595428762310      3.49019611641398
