21
Coordinates from ORCA-job NEB_reactant E -48.532674625820
  C           2.43566217083677      0.15795653946671      0.84858917035904
  C           1.30726940513446      0.34597251255634      1.60278749672429
  N           3.18537132069770     -0.99368730591708      0.64990677570607
  H           2.80549203436933      0.99970396886539      0.28426092706565
  N           0.62044778783692      1.51137987846172      1.47696840184760
  C           3.96364845775583     -1.35850415809494      3.86169986764453
  C           2.79919854366643     -0.73173042587931      3.82328682500616
  C           1.54184656098451     -1.34652137157575      3.29700006736071
  O           0.76064910614002     -0.41484628536052      2.55617514143501
  C           5.18626459573422     -0.72984603927116      4.45336141407874
  H           4.10569023433737     -2.36495778592698      3.49865735991991
  H           2.70869961531988      0.28714710736482      4.18007922559430
  H           0.89063715442886     -1.62698972485229      4.13143084816116
  H           1.76674139473022     -2.23128584760464      2.69117236270866
  O           4.28575952883755     -0.85562251198212      0.14123255364377
  O           2.71319191089352     -2.08940152630049      0.94161279792247
  H          -0.23476109175835      1.59390360832381      2.00084829315334
  H           0.71822176374496      2.05976886873722      0.64152271744955
  F           5.41853953703233     -1.18312616915974      5.70287507732204
  F           5.09260056725848      0.60565439685491      4.55578979857844
  F           6.29062940201899     -0.98996772870589      3.74844287831856
