21
Coordinates from ORCA-job NEB E -33.829475136660
  C          -0.40805027437345     -1.40233063639715     -0.32155586154427
  C          -0.99182282142810     -1.14248956901422     -1.55422477840921
  C          -1.23486893532480     -1.64813151084589      0.79518970415127
  H           0.53948598716589     -1.92608631353562     -0.32165340295680
  F          -0.15517346136831     -1.37029453757312     -2.62442263237049
  C           0.06364232305740      0.64679397119668      0.23300892117480
  C          -0.50187914683327      1.36918394924795     -0.80388254295287
  C          -1.86510285216800      1.24355078809850     -1.07045509090084
  O          -1.98588304035401     -0.43782640659550     -1.77950750891667
  C           1.54832840787694      0.63670729803246      0.45468741811530
  H          -0.53415856318610      0.51971984276580      1.12752996525129
  H           0.14498744730819      1.70471825314258     -1.60575257554041
  H          -2.29881987259307      1.77547946843125     -1.90270093381399
  H          -2.53897477529848      1.04947319200942     -0.24727656397885
  N          -1.87794541570920     -1.83183730523642      1.72577951016593
  C           1.96278952059277     -0.13300333247951      1.70301533017708
  H           1.87080724729840      1.67800856456684      0.56015422161680
  H           2.05729326886554      0.23891456141316     -0.42672232774061
  H           1.48966902897440      0.29205766117818      2.58515921133287
  H           3.04071434808478     -0.08332729210721      1.83499567536786
  H           1.67496157941249     -1.17928064629817      1.63863426177181
