21
Coordinates from ORCA-job NEB_reactant E -33.867966148590
  C           1.72793346043308      0.16626843957935      0.09135956327704
  C           1.57054186504013      0.90429752330743     -1.01687042794969
  C           1.63196071324288      0.60821908911757      1.41412982566167
  H           1.92487261598400     -0.88864447795607     -0.03374265138102
  F           1.65437694326186      0.27175052296978     -2.19762959105430
  C           3.23712685200207      3.45980528875483      1.48856282321819
  C           2.82849471277225      3.36896261086450      0.23455460197839
  C           1.40574835557427      3.12740452404940     -0.17539717078781
  O           1.31679148779964      2.18015497172256     -1.23990091727198
  C           4.65086328838078      3.69234763680761      1.90632252547980
  H           2.52999673403229      3.33229783456515      2.29715846338927
  H           3.52078464088245      3.48269321283867     -0.58932680193817
  H           0.97269002101531      4.03500194877968     -0.60882033485705
  H           0.79651205635602      2.80898047831875      0.67567946903576
  N           1.55790259088441      0.90297899486005      2.52183511784126
  C           5.16532629810996      2.50401223863610      2.71924854219753
  H           4.69558688947259      4.59256897366685      2.52486769722104
  H           5.28322769079536      3.84698887427609      1.03030879150734
  H           4.53072726536556      2.33368174392047      3.58505566584500
  H           6.18112390931798      2.68829278361951      3.06002967395557
  H           5.15991160927710      1.60183678730171      2.11217513463215
