21
Coordinates from ORCA-job NEB_product E -33.879571441950
  C           2.82049806448906      1.19924124046631      0.48629600939256
  C           1.58899734646267      1.09273610594395     -0.37936711457477
  C           2.72864230931380      0.19977379560477      1.52651275924244
  H           3.71348756153491      1.01597705588472     -0.12176322041894
  F           1.93254218971889      1.05510576828790     -1.69806159405387
  C           2.86199755732967      2.64524519668912      1.06832676911193
  C           2.47181787969971      3.60424621209848     -0.02336031594569
  C           1.40016343298214      4.37252183061727      0.01409513087541
  O           0.45450780505902      1.05846217427993     -0.07103874808831
  C           4.25584375808319      3.00689863933409      1.59491739987004
  H           2.13295855833929      2.70647060208610      1.88247731429532
  H           3.14617987788715      3.63853650193450     -0.86975551500523
  H           1.15962523409195      5.05030429725853     -0.78639666945508
  H           0.71465810366573      4.35047146439125      0.84517237704712
  N           2.63927052614944     -0.60004068956712      2.33656693805980
  C           4.69205474162897      2.19144272687532      2.80506624942085
  H           4.23098025431011      4.06474124374682      1.86790663142190
  H           4.98772965117361      2.89344098260179      0.79098432856442
  H           3.94831419659215      2.24951251640244      3.59618924682837
  H           5.63232934535542      2.57833555171055      3.19033167910275
  H           4.83630160613310      1.14477678335328      2.55020034430897
