20
Coordinates from ORCA-job NEB E -48.286495909730
  C           1.09036053047333      0.38088064563944      0.46941174006110
  C           0.57273023082587      0.21412324175009      1.76153359429487
  C           0.88960669135827      1.75452643100591     -0.14437945374081
  H           2.09162833994003     -0.00045150484049      0.29068527548777
  Cl          1.28994561327241     -1.05271514494372      2.73820582503974
  C          -0.13548905587311     -0.82888930337041     -0.45639123807427
  C          -1.39595039707214     -0.35937111564092     -0.07082751726950
  C          -1.72446222911902     -0.37866026127886      1.31346211267553
  O          -0.61802122895523      0.56677542674934      2.04439573373061
  C           0.17268253698008     -0.95240125092543     -1.92169824390216
  H           0.23698025252085     -1.70834059171011      0.07005362853694
  H          -1.93294089040763      0.31858282027586     -0.71818869243306
  H          -1.54948050320409     -1.31250669966903      1.84273669485213
  H          -2.65842109629979      0.09323390634055      1.59143883482031
  F           1.44065866916172      2.69284062458329      0.66009686776803
  F           1.54837825756201      1.84609819214804     -1.31830372180354
  H          -0.16278004561718      2.03364635940560     -0.30535155760016
  Br         -0.71661633536091     -2.61414568391385     -2.53526775329401
  Br         -0.51183594064170      0.48473578941993     -3.03024952158131
  Br          2.07302660045622     -1.17796188102524     -2.28136260756820
