20
Coordinates from ORCA-job NEB_reactant E -48.317067264990
  C           1.61673739842524      0.11733738174093      0.00119185163814
  C           1.04540232851294     -1.07271961346441     -0.21456257121290
  C           1.97145222653471      1.01790365353274     -1.14068400117184
  H           1.83868498026627      0.45079040892101      0.99681100430066
  Cl          0.64462763894082     -2.08629046543011      1.13084841099409
  C          -0.12022533747900     -4.04121011045999     -3.74433617746228
  C          -0.13352325934372     -2.88431081411426     -3.10196547340554
  C           0.12276624844032     -2.75460617692851     -1.63646970130163
  O           0.77237566249260     -1.51271644565496     -1.43479760735783
  C          -0.40519134041158     -4.24436485725445     -5.18071198733653
  H           0.09669834061326     -4.96590008466258     -3.22169275499857
  H          -0.33495933100021     -1.94651290457192     -3.60103776706332
  H           0.74175206126445     -3.57914096385030     -1.26190857211071
  H          -0.83647611136088     -2.76693047578127     -1.09727409939971
  F           2.87666232266845      0.44115010987491     -1.97516036678527
  F           0.89080074439369      1.29641993782939     -1.91660402531385
  H           2.39421859490453      1.97606690426670     -0.80450580831660
  Br         -1.96524303678744     -5.44594554222120     -5.35825106375242
  Br         -0.78641030130116     -2.62837802715098     -6.17896904556898
  Br          1.13245017022670     -5.13794191462074     -6.02922024437490
