16
Coordinates from ORCA-job NEB_product E -30.504241826290
  C           0.94241157286406     -0.37694916150338     -1.72452571221802
  C           0.66836671429123     -0.48460050943421     -0.24866329137153
  O           2.20254625374533     -0.88289489269952     -2.02693070616745
  H           0.90998680717367      0.66761922209389     -2.04954951718447
  Br         -0.73022493205703      0.69436610582437      0.37339677598257
  C          -0.18495347365763     -1.13965682582340     -2.49962177596401
  C          -0.39661094337887     -2.50262689540969     -1.90074230327214
  C           0.29563951479622     -3.57068389176331     -2.25055701080329
  O           1.20276181418729     -1.23001142666633      0.50352764360657
  O          -1.32800107795040     -0.32764137254188     -2.45106756979447
  H           0.18745659242352     -1.23590282531923     -3.53294724585860
  H          -1.14861409540330     -2.54746389257254     -1.12326593168922
  H           1.04591019093902     -3.52952030941372     -3.02358986547942
  H           0.13931222596736     -4.52556954158226     -1.78026512712213
  H           2.34370206939014     -1.70026474952757     -1.52857070839587
  H          -2.08198923333060     -0.80579903366122     -2.81252765426851
