16
Coordinates from ORCA-job NEB_reactant E -30.496501660270
  C           1.57232454220841     -0.01019042170118     -0.44438444331921
  C           1.13494226371494     -1.25164745558512     -0.24623887390271
  O           2.29943641549803      0.32686795783294     -1.54694019315018
  H           1.35772755924881      0.75845820942754      0.28444493936663
  Br          0.05646043881970     -1.53673705588633      1.33644923445654
  C          -0.52502706598040     -2.34079447388965     -3.69032708308349
  C          -0.58054836664310     -2.28641805811955     -2.36603591463510
  C           0.31342460843362     -3.09026133810746     -1.47938912444005
  O           1.41985179618522     -2.32813279041848     -0.97729557989949
  O          -1.28430438561103     -1.63078897194141     -4.54633729095882
  H           0.14990665165856     -3.00178669024242     -4.21497492597248
  H          -1.26075327910959     -1.60271931774210     -1.87277893198326
  H           0.78151649755553     -3.90973181447394     -2.02561076587466
  H          -0.25128664177265     -3.49171440028349     -0.62639671675441
  H           2.62270478918724      1.22927190764087     -1.46637091917029
  H          -1.87417582339330     -1.04067528651024     -4.05881341067903
