18
Coordinates from ORCA-job NEB E -38.487914024220
  C           1.04516969270047      0.29658529799345     -0.39570359767382
  C           0.27438756403710      1.43451307002907     -0.60589641002323
  C           0.95032658676654     -0.81118052002878     -1.41538748146066
  H           2.05347181330049      0.43133621648721     -0.01981131061736
  Cl          0.83113005922730      2.89247747266311      0.23242126342557
  C          -0.01478961021859     -0.48001437809734      1.19346279972553
  C          -1.30682348529078     -0.46119151927820      0.66331812215314
  C          -1.91677451875313      0.75496310766560      0.33478439822713
  O          -0.92756197239367      1.40307189388050     -0.96307575704254
  O           0.53136001172759     -1.68723778124049      1.44809661443789
  H           0.29166779042968      0.33668969184392      1.84420093953833
  H          -1.66374358447138     -1.37847209364898      0.22012338575796
  H          -1.78515968537436      1.59595870516200      1.00466652240720
  H          -2.87890933569383      0.72460565864628     -0.15404895188810
  F           1.57651483114562     -0.43250368060068     -2.56230620153039
  F           1.61275268812646     -1.91195442383421     -0.99555043843996
  H          -0.07885464082587     -1.09211746569111     -1.67622452550693
  H           1.40583579556037     -1.61552925195135      1.84693062851026
