18
Coordinates from ORCA-job NEB_product E -38.528853548530
  C           1.63184874830426     -0.85226338644130      1.66939269868742
  C           1.08065602220250      0.44798080848980      1.16753388276667
  C           1.28393641630710     -1.95684950782282      0.66881619744152
  H           2.71912151324270     -0.79566267637297      1.77908773039701
  Cl          1.91097679940110      1.83049450892027      1.85995968090826
  C           1.04236422457943     -1.14097883989268      3.10597753597463
  C          -0.40374506681784     -1.54129613611161      2.99785775626536
  C          -1.40828446541360     -0.69078088532063      3.08662129460045
  O           0.16163326099197      0.59912561620087      0.43264840697546
  O           1.82708265123102     -2.06788747934010      3.78483503890617
  H           1.13637012455727     -0.21221988321557      3.67935904491245
  H          -0.57871021755169     -2.59822076683311      2.84438764978049
  H          -1.24973562704821      0.36200766212156      3.25006681663773
  H          -2.43096627998359     -1.01251977070854      2.99797804584574
  F           2.09766809237937     -1.87981888123784     -0.40591069426502
  F           1.48881855966720     -3.18769272734835      1.20223359456599
  H           0.24282040940916     -1.90556591412966      0.31858447246558
  H           1.73004483454184     -2.94255174095731      3.38567084713409
