18
Coordinates from ORCA-job NEB_reactant E -38.518121796350
  C           1.70432301753786     -0.03149282880099     -0.08502029738906
  C           0.98989546653008      0.17716812224021      1.02857182733308
  C           2.22337327971252     -1.38999457165295     -0.42962692464116
  H           1.92787899308880      0.77657183475521     -0.75497144872520
  Cl          0.40902069776549      1.77708627543207      1.36112510196745
  C           0.12111635985987     -2.05828709802552      4.96979167591976
  C          -0.29590710188238     -1.84575467074012      3.72844358688575
  C          -0.13174291202911     -0.54409913889095      3.01806258880308
  O           0.71171655267298     -0.78134821020643      1.88903985481078
  O           0.00515131459483     -3.20973861716155      5.65568855883686
  H           0.58213893351232     -1.28721993644955      5.57098610283550
  H          -0.74170334445974     -2.64052295951648      3.14731431489717
  H           0.32720769056967      0.20317309640998      3.67481186744835
  H          -1.10083174141731     -0.16578643438076      2.66648268808399
  F           3.08890812445500     -1.86162867172337      0.50819823919635
  F           1.22734365258112     -2.31492708355609     -0.49656098377970
  H           2.74856697579598     -1.40318497076142     -1.39660850244203
  H          -0.37985595888798     -3.89501413697128      5.09337174995905
