18
Coordinates from ORCA-job NEB_reactant E -34.731859404520
  C           1.32517124273792     -0.56233922874335     -0.33063907696029
  C           1.35595254042520     -1.47649437870826      0.63452707106388
  Cl          0.84569400720025     -0.75844408152285     -1.97942079425780
  H           1.62768841553161      0.44701891110445     -0.10733760622440
  C           1.80439717368725     -1.08904343793291      2.02891038259977
  C           1.73094183816904     -3.92418724026106     -2.76586721550938
  C           1.85693527461590     -3.63434280820973     -1.47260215073543
  C           0.70096720497572     -3.48424071430303     -0.53454527290656
  O           1.03904579383011     -2.79747968560057      0.65665395993972
  C           2.84479019490900     -4.08775706731381     -3.61104058944379
  H           0.76324797952701     -4.04390933322751     -3.23552410692638
  H           2.83645893737473     -3.51362172537068     -1.02897201577860
  H           0.39572272469113     -4.47687093167453     -0.17871956595930
  H          -0.15802501062045     -3.01928958500918     -1.03010781097147
  F           2.04110486291175      0.24822032862733      2.14695835377058
  H           2.73412983572400     -1.61029297359740      2.28459005395352
  H           1.02670507350068     -1.35360649822658      2.75373402816492
  N           3.74477191080912     -4.22431955003032     -4.30809764381898
