14
Coordinates from ORCA-job NEB_reactant E -26.128419740680
  C           1.87275786109838      0.19469754820785     -0.00474494831101
  C           1.52745761701515      0.39292437791275      1.26119594012908
  Cl          1.71718312054738     -1.35036385899136     -0.74602339758938
  H           2.28133692002457      0.96752343273835     -0.63141268600914
  I           1.77257888695182      2.38828304701998      2.01179090687577
  C          -0.45106391157715     -1.43805649026221      5.08830699149710
  C          -0.19465859395786     -1.52379366319953      3.79773016808967
  C          -0.01198574551281     -0.33832590264790      2.90392166599594
  O           1.15366766671195     -0.55130649153716      2.11122058219960
  H          -0.59330257060447     -2.31501080317955      5.69496610154093
  H          -0.54112410891943     -0.48815410738151      5.58930835646444
  H          -0.09746634303284     -2.47833037476219      3.30103965606159
  H           0.09965567267628      0.58070271616116      3.49435417791835
  H          -0.88343647142099     -0.22698943007867      2.24084648513703
