29
Coordinates from ORCA-job P E -46.686540232060
  C          -1.30770328372362      0.31167177954479     -2.39026887543996
  C          -0.09301171483262     -1.76670841299878     -1.04549200981502
  C          -1.44274418820204     -1.99353159955717     -1.65403622675592
  C          -2.02038281344020     -1.00587295854890     -2.31729013488102
  C          -0.83767699956288      0.68736363901662     -0.96966144670860
  C          -0.04903070228680     -0.43561173343064     -0.26852357881816
  H          -1.88882535766580     -2.96934918319734     -1.55133902573671
  H          -2.97932161988116     -1.10653155476007     -2.79875707136657
  C          -2.15418644387806      1.42401529924345     -2.94914209403044
  H           0.17383039378058     -2.59220366463068     -0.38478802484279
  H          -0.41954534370662      0.19278939601283     -3.02443326069557
  H           0.64529616242419     -1.73193192217456     -1.85560374617059
  H          -1.72006302113197      0.92724306233627     -0.37425941100278
  H          -0.49329143013269     -0.61464244631943      0.71893244028989
  H          -0.24299631575360      1.60122677420200     -1.03776612880416
  C           1.38713673930067     -0.00851583959950     -0.01194374578017
  C          -3.44362938935651      1.63536444911963     -2.47631422310990
  C          -4.21540535800630      2.66813553582020     -2.97667810313227
  C          -3.70522419304041      3.50628828263451     -3.95355982462117
  C          -2.42003885013453      3.30623844756760     -4.42643444183924
  C          -1.64952194295986      2.27134974918113     -3.92595570981564
  H          -3.84803863376401      0.98513992306307     -1.71312598462315
  H          -5.21725956694141      2.82007724668271     -2.60238906242745
  H          -4.30771453236144      4.31286833607517     -4.34404178846418
  H          -2.01545861270355      3.95713553239021     -5.18737455659977
  H          -0.64619144921064      2.11957259569993     -4.29878136843868
  Br          1.44728539556185      1.55772513122168      1.17263457676908
  Br          2.42039328067954     -1.41793280730476      0.87056402242049
  Br          2.31813979092992      0.46170694271003     -1.65974119555954
