29
Coordinates from ORCA-job R E -46.599139355150
  C          -1.34675209810986     -0.53902709651402     -3.01907261702179
  C           0.27698593700895     -3.08090253215813     -2.73658823141680
  C          -0.98897681482935     -2.90598539595956     -2.36140273825868
  C          -1.74017548669755     -1.67132141071356     -2.41576135043687
  C          -0.39057961141303      2.79761700342228     -0.92965859208287
  C          -0.53752470484122      2.07469134795009      0.16353575413772
  H          -1.52140747531948     -3.74298956774426     -1.92669327698744
  H          -2.69413476756640     -1.69816479867752     -1.90639869705442
  C          -2.06573088801360      0.71896698164137     -3.01574453473160
  H           0.76159300234378     -4.03730909012571     -2.63534699752899
  H          -0.41853888190057     -0.53569263349458     -3.57438661572046
  H           0.87809438851903     -2.28816776967432     -3.14897176123281
  H          -0.92454117282572      3.71998282699367     -1.06317730145464
  H          -1.19646121405395      2.38693214579908      0.96509389853003
  H           0.25683967953668      2.50693055777726     -1.74155276680332
  C           0.14277764772657      0.79246849131712      0.45315735621467
  C          -3.13515517377932      0.98338003221793     -2.15572394833555
  C          -3.77293724453368      2.20826806540206     -2.17478342592166
  C          -3.36311539119751      3.20020336659999     -3.05078752392002
  C          -2.30363133963289      2.95609402918623     -3.91035864581950
  C          -1.66090524198000      1.73480929765332     -3.88864606519961
  H          -3.46715151547359      0.22826567903959     -1.45907375443746
  H          -4.59501120808112      2.39345851529615     -1.49830465311159
  H          -3.86644487268479      4.15566988535641     -3.06651943175060
  H          -1.97666612029327      3.72432929513388     -4.59638441814402
  H          -0.83579919968461      1.54867263502031     -4.56227042362627
  Br          1.22003781508980      0.98731625338624      2.09978450828644
  Br         -1.20639653893992     -0.59299152473525      0.79361356473236
  Br          1.31518849162664      0.15668541060393     -0.94171731090425
