29
Coordinates from ORCA-job TS E -46.584476016760
  C          -0.19667233852765     -0.53538438500111     -0.58077410972683
  C           1.29948061435239     -2.71861368149213      0.57437809352280
  C          -0.04269872071553     -2.76311506482937      0.39119672106730
  C          -0.77980780783389     -1.71628342529325     -0.19651160669961
  C           0.42861265113977      0.10336919913259      1.44774220805314
  C           1.34016664560779     -0.76142690695233      1.97844584465112
  H          -0.60628402379812     -3.55863487100014      0.86044704668529
  H          -1.85729417120218     -1.79655865538846     -0.17572420440080
  C          -0.93038191360894      0.62342123245028     -1.07723174582321
  H           1.79297954873365     -3.49800393571128      1.13109176653365
  H           0.84768809684747     -0.54354218783648     -0.85792981522298
  H           1.93460347376774     -2.11521448862344     -0.04850520232550
  H          -0.58797014623147      0.07863566491829      1.79413277977306
  H           1.05053944388916     -1.48332673436710      2.72676628790795
  H           0.74948754376359      1.02445868370793      0.98994581208536
  C           2.78246429912024     -0.45009266095534      1.94766475059414
  C          -2.26674987279293      0.86345030600341     -0.75497390908122
  C          -2.91729799005099      1.98277893762842     -1.23699299529916
  C          -2.24698330523089      2.88785298188880     -2.04386513335524
  C          -0.91630153971615      2.66943618364211     -2.36153208859286
  C          -0.26280655791303      1.55281049138311     -1.87792703391154
  H          -2.79951067650669      0.17644222808118     -0.11447451530800
  H          -3.95207461446938      2.15412977989091     -0.97849997970803
  H          -2.75793399223983      3.76258697741166     -2.41740056003299
  H          -0.38593485474507      3.37462625944109     -2.98413138921751
  H           0.77707228917460      1.38892943060876     -2.12414622012940
  Br          3.18162647136404      0.99136609334278      3.31559557649578
  Br          3.92024661981011     -1.95349741839693      2.42944068769104
  Br          3.40173482801216      0.25939996631606      0.24377293377425
