21
Coordinates from ORCA-job NEB E -33.186329783920
  C          -0.39367892092186     -0.95411961245675     -1.27347938467945
  C          -1.69236480626753     -0.50361271906956     -1.51613997351488
  C          -0.23355918258370     -1.97184722876508     -0.30005000749159
  H           0.29134665151100     -1.02409183433662     -2.11125951287157
  Br         -1.93222450174917      0.43748197346443     -3.23764878506450
  C           0.27197723152354      0.67024067184352     -0.22124027568474
  C          -0.71030491433063      0.71644261027402      0.76296001647982
  C          -2.03058497063339      1.04332376399870      0.40803859194397
  O          -2.53704409377364     -0.26722600045491     -0.62794596082696
  C           1.72766964767578      0.41453915939051      0.08057735660696
  H           0.13917829833897      1.33733673156873     -1.07002449092474
  H          -0.55231876988411      0.17774281209848      1.68471261185486
  H          -2.18674848263649      1.83594623639478     -0.31603464965889
  H          -2.79520340398661      0.98642067693254      1.16907376993052
  N          -0.11180528845304     -2.80665499800731      0.47396603775208
  C           2.02375751902520     -0.20355479270571      1.44154380628354
  H           2.22927276609519      1.38643051710710      0.01758042392009
  H           2.16511603368302     -0.20866526005444     -0.70264780313445
  H           3.09520842234185     -0.35926827595987      1.54032264827684
  H           1.70273111228566      0.45723230617055      2.24286433866539
  H           1.52957965273997     -1.16409673743312      1.55483124213770
