21
Coordinates from ORCA-job NEB_product E -33.225614703730
  C           3.17138504851055      1.11013974783050      0.36064228820627
  C           1.95568007357880      1.23214098239982     -0.51898637392252
  C           2.92532200629177     -0.01464310269326      1.24113952884320
  H           4.03766009129453      0.85743555563847     -0.26472318410485
  Br          1.86064462793708     -0.24158627025064     -1.82457306164206
  C           3.42727153240690      2.43299561116563      1.12600930358249
  C           2.44585259211146      2.60733113565694      2.24967010189790
  C           1.68413160426436      3.67437917902410      2.39234349313541
  O           1.11081179619868      2.05238182377916     -0.50986552472805
  C           4.88508810235451      2.52174308372156      1.61051050602735
  H           3.27345564842426      3.24716487538943      0.40762123594494
  H           2.39272870451733      1.79402772377597      2.96051046297527
  H           1.71174657737828      4.49118109674661      1.69002175227077
  H           0.99631436867537      3.77410334782594      3.21377976618543
  N           2.71333013946573     -0.91061631379581      1.91609387506983
  C           5.29939445554719      1.45163192946090      2.61270723430926
  H           5.01462735531924      3.50532169481155      2.06754059410537
  H           5.54562199912552      2.47516800503895      0.73985837707064
  H           6.33441174390279      1.61082362476445      2.90652828272248
  H           4.68469524751749      1.49518787873641      3.50726177639562
  H           5.22062628517812      0.45298839097330      2.18960956565525
