24
Coordinates from ORCA-job P E -38.906346417180
  C          -1.28265316612928      0.33285957760026     -2.32406043067217
  C          -0.16045426435295     -1.76747539434556     -0.91241549414412
  C          -1.47853330469098     -1.97005521964509     -1.59215649907681
  C          -2.00156253495718     -0.98235553467085     -2.29820603114285
  C          -0.93151532494892      0.69360783272028     -0.86766880291237
  C          -0.06857787344854     -0.39532544929995     -0.20642495327701
  H          -1.94773955971315     -2.93750781488784     -1.51401381112071
  H          -2.94113828662047     -1.05215726472729     -2.82136692041207
  C          -2.10517491895697      1.44131532184002     -2.96478139631782
  H           0.03896261140760     -2.56038127863508     -0.19210787449763
  H          -0.34674704587231      0.23805127654644     -2.88867835320551
  H           0.62456883295810     -1.81351729106145     -1.67493099193243
  H          -1.86747583049255      0.79789239709456     -0.31676079656915
  H          -0.37965356846584     -0.51265047953163      0.83566306358205
  H          -0.40682121538223      1.64954467217124     -0.82997078876516
  C           1.39070836544527      0.05571157923173     -0.16469571114167
  O          -3.25745705559427      1.29779095833092     -3.28116169298306
  C          -1.37192442142108      2.74583823732051     -3.15991267845469
  H          -0.30261166745322      2.59793385678274     -3.27604512571072
  H          -1.54856102739452      3.37439821848996     -2.28774917567981
  H          -1.77598147004763      3.26505037942108     -4.02546953502700
  F           2.18202792173874     -0.89250899191799      0.39284678882954
  F           1.87987752503220      0.26472255474011     -1.41387936807058
  H           1.54142727936017      0.98695785643287      0.40479657870174
