19
Coordinates from ORCA-job NEB E -37.393524923680
  C           1.08233759913441      0.30881439954095     -0.56622572080825
  C           0.34480812373583      1.41747431736364     -0.92063306375044
  C           0.89720426213095     -0.91783877918848     -1.40739043501480
  H           2.07216584761879      0.42840418336696     -0.14852134146531
  Br          1.00267467473217      3.11211038548029     -0.12651982807594
  C          -0.11328119605198     -0.12787343015317      1.26214085379472
  C          -1.31825199304649     -0.26890846556374      0.56057770038783
  C          -1.96805573537975      0.83129592214637      0.04056357818603
  O          -0.80757815293687      1.41972617186467     -1.36255204650997
  N           0.48718673338200     -1.16024161942592      1.88612076181468
  H           0.12930696507160      0.84417862666546      1.67606478112824
  H          -1.59332517754830     -1.25955600393647      0.22686104436189
  H          -1.88378369590405      1.78739253611884      0.53525645719437
  H          -2.85845874069823      0.69526386772278     -0.55019026945023
  F           1.89749048509939     -1.01493638846551     -2.32345801198177
  F           0.97898587749636     -2.07062189125096     -0.68449389719063
  H          -0.05999247059603     -0.92492774263375     -1.94723521976998
  H           0.32835097861028     -2.08992282971047      1.52926426206876
  H           1.38221561514992     -1.00983325994148      2.32037039508080
