19
Coordinates from ORCA-job NEB_reactant E -37.410646668720
  C           1.77364621644623     -0.09743768196173      0.05414709394076
  C           0.95948656213030      0.23213553706418      1.06391624398025
  C           2.30195339694575     -1.48731102218561     -0.09472915544337
  H           2.06915765817169      0.63240495675099     -0.67610769047297
  Br          0.35654066413409      2.05122356547215      1.15273696212786
  C           0.06080783428437     -1.60337403502531      5.09720417743917
  C          -0.53353357058317     -1.41079740001467      3.91929992413168
  C          -0.28261247029148     -0.21034287398263      3.07569193067637
  O           0.55383444409895     -0.61070909597167      1.98069882293189
  N          -0.18576281235649     -2.65716340001693      5.93950547977186
  H           0.72929879188087     -0.85529259159542      5.50311176728997
  H          -1.19052589231228     -2.15878801510791      3.50340481843942
  H           0.22755189123197      0.57055713519963      3.65208378349758
  H          -1.22009420998216      0.19291957313401      2.67089043808595
  F           3.02273973272962     -1.87812440021656      0.99218660557813
  F           1.30400768930340     -2.40456785045286     -0.21366716105907
  H           2.95254461211764     -1.59243066343088     -0.97572656013968
  H          -0.64524809067861     -3.45216114870774      5.52302543785066
  H           0.53720755272929     -2.89154058895103      6.59882708137354
