20
Coordinates from ORCA-job NEB E -45.647030675640
  C           0.82404983975736     -0.88095199663373     -0.12232027108067
  C          -0.39576889618469     -1.38800082675722      0.37436170999780
  F           1.85346952342750     -0.81158986603675      0.74412790553295
  H           1.18388345125034     -1.23676920179661     -1.08592071968514
  C          -1.38986439931660     -1.99677346363965     -0.57713078480073
  C           0.44260931241679      0.94587183967810     -0.34739692447596
  C           0.02197561853235      1.28000934207475      0.94519476404998
  C          -1.14712751201506      0.63731207981286      1.47172327540622
  O          -0.85094147586283     -0.90773101295778      1.50302012240748
  C           1.68945615014812      1.60354535244394     -0.90049974089670
  H          -0.31778995957439      0.83958166602047     -1.11596403000481
  H           0.75935542700267      1.66065103181152      1.63723201516566
  H          -2.03251037543816      0.69175089346882      0.83980619893037
  H          -1.37099130968732      0.85667970124294      2.51001406166512
  Cl         -2.25698907807003     -0.74151831386756     -1.57042258970330
  Cl         -0.60247900199633     -3.09734482149300     -1.71711834496753
  Cl         -2.62152687235861     -2.87812005068422      0.33577527248007
  F           2.58541933383648      1.91688571660344      0.08168643211051
  H           1.41559743683573      2.54692844083727     -1.38927543820292
  H           2.21017278729668      0.95958348987241     -1.61689291392840
