19
Coordinates from ORCA-job NEB E -33.656089443240
  C          -1.06726607557699      2.07308545803538     -0.86638700287221
  C          -0.79429049241632      0.85818760762584     -0.39064563987492
  O          -1.41752589731559      2.32180436853779     -2.16182024779138
  H          -1.01567465369771      2.96007739514631     -0.25989880821298
  O          -0.45077695601486      0.57943854454402      0.90085517344944
  C           1.13847049031909     -2.19197735042589      0.83291846798470
  C           0.73855306544375     -1.74386486080647     -0.34185928936647
  C          -0.70419999881819     -1.50583050474277     -0.67864093193774
  O          -0.91081257361962     -0.22780543934080     -1.24354640157378
  Br          2.96029069714695     -2.47976781150539      1.25171767534990
  H           0.47132179559346     -2.43553880736716      1.64423183074152
  H           1.44571488249665     -1.49406166995300     -1.12093014327108
  H          -1.33580552144209     -1.64471099497203      0.20566309097549
  H          -1.01858638693644     -2.20001677455765     -1.46524510175875
  H          -1.47393576111316      1.47571144276077     -2.62372087872871
  C           0.64845587070015      1.28364882693832      1.46097508327449
  H           0.35274553342233      1.61963872499650      2.45491960712378
  H           0.92772376877684      2.14302404900115      0.85278650036419
  H           1.50559821305174      0.60895779608508      1.54862701612451
