19
Coordinates from ORCA-job NEB_product E -33.689827360460
  C           3.29974908251031     -0.67967854833889      0.09123965166397
  C           2.25212813255221     -0.44391519587439      1.17691523958869
  O           2.76765526700565     -0.34958562217374     -1.15065183924010
  H           4.17954240758570     -0.05042734876312      0.28494925306579
  O           2.73785144496375     -0.58385679648480      2.40019975973919
  C           3.71193484802809     -2.16323610956756      0.18561505666307
  C           2.56849851853778     -3.07543631663572     -0.08475741419571
  C           2.14404192319797     -3.98351952934507      0.77427289934248
  O           1.10706111546225     -0.18793426109418      0.90476534631442
  Br          5.13463595759226     -2.49889556275088     -1.13531818832052
  H           4.16587401512753     -2.35436179691262      1.15987361447962
  H           2.09743692203820     -2.94633281552233     -1.04959257929809
  H           2.61798274623831     -4.12614350329054      1.73235928634985
  H           1.30667076279583     -4.62146286963824      0.55258349276105
  H           1.80821787059936     -0.23835353655082     -1.04577700439062
  C           1.80952904812092     -0.41704784620875      3.47037204854113
  H           2.38005484840542     -0.54221700114192      4.38634304401734
  H           1.01924884916442     -1.16645879164813      3.40082712507556
  H           1.36088624007404      0.57656345194171      3.42758120784288
