17
Coordinates from ORCA-job NEB E -41.661799493730
  C           1.08753779727582      0.22130068926522      0.20822217829346
  C           0.42900742148954     -0.29090680118423      1.34193745467345
  C           0.99877923288237      1.70881916787633     -0.03812714242206
  H           2.10558219842391     -0.12661063246170      0.05173500502764
  Cl          1.14777980168652     -1.75706523346028      2.01719504805078
  C           0.03621601763879     -0.81433164303706     -1.11885222700461
  C          -1.29347032483096     -0.54064322855010     -0.79763186471353
  C          -1.76754949876922     -0.92435079490389      0.47676523853954
  O          -0.79281158528797     -0.09347323174920      1.57528205134444
  Br          0.62104133685366     -0.38906064744301     -2.88002193902146
  H           0.47084147176025     -1.75922157872286     -0.81059591957380
  H          -1.82100537429494      0.21990740059957     -1.35153372752638
  H          -1.53319244378575     -1.92757127655518      0.82011781909716
  H          -2.75869561986353     -0.59162288031354      0.75384611906531
  Cl          1.95885052321153      2.19966531500966     -1.44719139711143
  Cl         -0.63513371075243      2.34866536905524     -0.19816602797009
  Cl          1.74622275636241      2.51650000657502      1.39701933125158
