17
Coordinates from ORCA-job NEB_product E -41.707120111180
  C           1.68641595038505     -0.94284564605674     -1.29302194262365
  C           1.06766850602513     -1.21086198283006      0.07424595834571
  C           1.35025471754874      0.49635815516280     -1.70778424506347
  H           2.77670279917336     -1.00329863881150     -1.20759537250403
  Cl          2.19908210205550     -0.96616850756632      1.38478366144628
  C           1.19293250301582     -2.05058646959676     -2.25241780979782
  C          -0.10275543489318     -1.80895833715405     -2.94709982905055
  C          -1.19092149546165     -2.50979056123505     -2.68622718959110
  O          -0.04047046799672     -1.57215792284355      0.28174362441381
  Br          2.59026337789785     -2.40468670503179     -3.60175381811125
  H           1.13844741789312     -2.97992313842865     -1.67930653656721
  H          -0.09520909042518     -1.05265535188996     -3.71811404490748
  H          -1.20981446628203     -3.27361475495500     -1.92686878600129
  H          -2.11243771082459     -2.32698958696894     -3.20968631126268
  Cl         -0.39140825491725      0.83575512947925     -1.58425499085442
  Cl          2.20400557648877      1.62472107856339     -0.61464281245412
  Cl          1.89434397031726      0.84100324016294     -3.36129955541675
