27
Coordinates from ORCA-job P E -30.841171778620
  C          -1.72962646333327      0.18663046315508     -2.12784326399107
  C          -0.37129548391875     -1.89436317954660     -0.94809479940080
  C          -1.80877629027971     -2.09178415998012     -1.31084375765267
  C          -2.45830198777212     -1.10509074061918     -1.90559418718188
  C          -1.06575825128917      0.56445539073501     -0.79571304431955
  C          -0.12850097739629     -0.53462445044114     -0.25763980714619
  H          -2.27228379667276     -3.04178583822628     -1.09287781995741
  H          -3.49701238325155     -1.15959835784725     -2.18540465199191
  N          -2.64530459927356      1.23369501157534     -2.55258524186976
  H          -0.02399042815892     -2.70199181933380     -0.30443039676604
  H          -0.92943321993670      0.02457193994054     -2.88128732277016
  H           0.22254468504348     -1.92161253876281     -1.86844161811195
  H          -1.87018635168566      0.75457078478427     -0.08339284637186
  H          -0.33489734900302     -0.66311040724701      0.80981594404812
  H          -0.50855387198542      1.49593662894224     -0.92039881252630
  C           1.33849184218421     -0.10994172280463     -0.40248833641339
  C          -2.99780024886054      1.15202471327857     -3.95426821746157
  H          -2.23140392838002      2.14190765378684     -2.36273350453477
  H          -3.50849520736570      0.20768700050464     -4.13952966478063
  H          -2.12659975428978      1.20504657868678     -4.62768495286955
  H          -3.67769949557077      1.96714432065692     -4.19645823356926
  C           2.31917382218185     -1.09841306320490      0.21853580153843
  H           1.46973567096057      0.85978887576868      0.08452766021682
  H           1.57285343428754      0.01740224321830     -1.46237681060984
  H           2.06800602398791     -1.27620810180690      1.26208857928506
  H           3.33099225193083     -0.70142138572379      0.17367042218502
  H           2.30589235784734     -2.04987583948879     -0.30606111697687
