27
Coordinates from ORCA-job R E -30.765092939980
  C          -1.27545138141749     -0.35992957376647     -3.03250412060244
  C           0.32349344538184     -2.92297789900079     -2.84164634145404
  C          -0.95119492182579     -2.75004810243262     -2.49333192191083
  C          -1.74163861836047     -1.54771896031982     -2.61194089685307
  C          -0.44362672958214      1.94217921255434     -0.48404645268882
  C          -0.39307439300237      0.67921166890992     -0.10379248459376
  H          -1.47923355803469     -3.59120125338841     -2.05918842125420
  H          -2.77665192346438     -1.64119341095459     -2.31869673142587
  N          -2.00292438183894      0.78750099857585     -3.21964986134754
  H           0.82026531008503     -3.86654649382695     -2.69587964221355
  H          -0.23812952862746     -0.25339056027529     -3.31546403305353
  H           0.91400046414629     -2.14327944767750     -3.29145405091941
  H          -1.34628986249220      2.52743379198527     -0.42010678506902
  H          -1.27687439258164      0.19275025780999      0.28911460776911
  H           0.42444646128075      2.44990913961585     -0.87412386830007
  C           0.82920145067305     -0.17832317007622     -0.15075168896342
  C          -3.35443125891605      0.89642289371224     -2.72813311085369
  H          -1.46402253436727      1.63742952461682     -3.14766097855807
  H          -3.41842340864935      0.77746951802346     -1.63957295426742
  H          -3.96994187274345      0.12943540351293     -3.19825990273140
  H          -3.75108585594219      1.87270949394474     -2.99997583954471
  C           1.17681834170707     -0.71544138882492      1.23709336885897
  H           1.67008071532276      0.39483666012602     -0.54674092510581
  H           0.64339646505181     -1.02377459838997     -0.81947927472490
  H           1.37228603915656      0.10469935109013      1.92501120287564
  H           2.06144424868139     -1.34588201563290      1.18919497223283
  H           0.35385168035933     -1.30724103991109      1.63174613469903
