22
Coordinates from ORCA-job P E -39.822715214370
  C          -1.37234652223093      0.38467370157028     -2.35714365656145
  C          -0.02789366429971     -1.61732744677940     -1.04727183540747
  C          -1.38824249863675     -1.91249389529723     -1.59392983858961
  C          -2.04127401299424     -0.95303136915085     -2.22967505800653
  C          -0.84224062613265      0.82339229813250     -0.97810668996669
  C          -0.04156042819775     -0.28358096493443     -0.26332947285328
  H          -1.80234900560359     -2.89724979022815     -1.45504930683252
  H          -3.02217336665633     -1.08452084026694     -2.65544615873035
  C          -2.32585203241093      1.43656351787560     -2.91025395082277
  H           0.31885032783069     -2.41444028652217     -0.39098881188571
  H          -0.54109257613055      0.30461349597612     -3.07158960781685
  H           0.67974242718989     -1.54515609658041     -1.88146958011630
  H          -1.70316281433543      1.08633133432978     -0.36060869911484
  H          -0.48854881350941     -0.47993256622916      0.71390595966314
  H          -0.24548652452508      1.73258301216555     -1.08800058272439
  C           1.40787660036561      0.11424380808235     -0.00069710335026
  F          -1.69440096602101      2.63072856812224     -3.04180139231154
  F          -2.74840626324368      1.09854377104926     -4.15127663452364
  H          -3.21559255167518      1.59524013922494     -2.28159945226368
  O           1.94301469085635     -0.01942956575974      1.05963935656223
  O           2.07451825085574      0.59827623545795     -1.05950200190819
  H           1.52009036950491      0.66405293976192     -1.84898548243931
