22
Coordinates from ORCA-job R E -39.732808238750
  C          -1.28260551865375     -0.24794212316555     -2.91548642485410
  C           0.10612657165863     -2.77286090200613     -2.01900846300212
  C          -1.17887902580502     -2.48078577839458     -1.84639551906048
  C          -1.79869598025342     -1.20305871302665     -2.14282840872557
  C          -0.72305423202309      2.20767816785866      0.45995688067289
  C          -0.45211787587393      0.91095566312794      0.46928465916595
  H          -1.84497829154395     -3.22333395827136     -1.42721431770698
  H          -2.77086804830250     -1.04121409462383     -1.69138550866916
  C          -1.96584860640008      1.05323181636153     -3.15136926609652
  H           0.49913728615417     -3.73975537944891     -1.75906385636856
  H          -0.32968615302898     -0.35814302297763     -3.40918427823242
  H           0.81575791666102     -2.05471083436689     -2.38959999386457
  H          -1.53047063416957      2.61634077497833      1.04344394900866
  H          -1.01100098642631      0.22189889052190      1.08588174462756
  H          -0.15312556769265      2.92600216137032     -0.10878723213897
  C           0.68469346746107      0.26935402330802     -0.24310232937618
  F          -1.26125415883013      2.08230912585785     -2.57096666440211
  F          -2.01591890061801      1.36422254738233     -4.46908017351718
  H          -2.98882996283433      1.10172619221873     -2.74901014069908
  O           1.14669881137771     -0.78243115532558      0.11066139711664
  O           1.18449835516034      0.91770495493331     -1.30444110514306
  H           0.67556153398277      1.71082164368818     -1.52593494873462
