17
Coordinates from ORCA-job NEB_product E -29.498119542320
  C           3.09864410894824     -1.07131678482724     -1.72890902491974
  C           1.72189238720410     -0.77086192641643     -1.21173229939646
  F           4.00554293397069     -0.63990883469601     -0.79449726936880
  H           3.24002464968711     -2.15518270725854     -1.83286851926107
  I           0.21124507275048     -1.81394420166356     -2.37211232290080
  C           3.34741354379808     -0.35617408489691     -3.07701790208450
  C           3.06669540845898      1.11199697619584     -2.92197078511381
  C           2.10523283820483      1.74747632458874     -3.56310515767938
  O           1.40421493759052     -0.07290984347049     -0.32113656896660
  C           4.78908438937142     -0.59791483141782     -3.52369734381966
  H           2.66373463899534     -0.78678862269066     -3.81480017166299
  H           3.71205962561969      1.62992333062387     -2.22586196671339
  H           1.45240725828569      1.24280710041652     -4.25759283317281
  H           1.93168273911514      2.80033346096874     -3.42509941746736
  H           5.48540911178293     -0.22373411506544     -2.77714384112219
  H           4.96968557116969     -0.07714947149616     -4.46038589292023
  H           4.97193078504705     -1.65975176889444     -3.67246868343023
