17
Coordinates from ORCA-job NEB_product E -36.227164833870
  C           1.72880319854383      0.65827141603306      1.46099674424912
  C           1.04019359797917      1.17278162399920      0.19082117991622
  C           1.49359097449856     -0.83850179283009      1.57370843067156
  H           2.80653727475354      0.81924975710471      1.30018432075655
  H           1.10219002890456      0.47512073571003     -0.66226733832074
  C           1.29360930043956      1.53244503826083      2.65053620852066
  C           0.03282347325886      1.13357471948915      3.33981022696870
  C          -1.08478928792434      1.82822760613078      3.22505234499221
  O           0.50712882601410      2.23471776443083      0.10030080076146
  Br          2.76380477496127      1.66241620682321      3.97904061392493
  H           1.19163769811458      2.55029065291576      2.26077765750741
  H           0.08163220789316      0.26442825360923      3.98146110624474
  H          -1.14687452424835      2.70710781856797      2.60467446693667
  H          -1.98440002590989      1.52816650334193      3.73229215847131
  Br          2.47518616170536     -1.75547278889911      0.13473143239291
  Br          2.10722171388649     -1.62009630918647      3.24135800356956
  Br         -0.40909539287045     -1.26852720550101      1.33782164243670
