17
Coordinates from ORCA-job NEB_reactant E -36.232550408170
  C           1.48127735349985     -0.03565108112557     -0.18566827009233
  C           0.85513302915558      0.93361520203564      0.48813259750701
  C           1.98264590036317     -1.22458317595518      0.52771916413745
  H           1.63141978164198      0.03002464018245     -1.24895288928359
  H           0.47719139555334      1.81819074384711     -0.01045731677832
  C           0.14818008479212      1.98775188046866      4.96593027349844
  C          -0.29265335873190      1.39815846243466      3.86921067083188
  C           0.03784672410201      1.88584508207617      2.49359560324741
  O           0.67624412518316      0.82071271138461      1.80883210829027
  Br         -0.28468872399799      1.37475514932947      6.69238699345987
  H           0.76655310917172      2.87201742116095      4.96897128263846
  H          -0.89474742208373      0.50227882842047      3.91280862745605
  H           0.70573309134409      2.75608584642035      2.53424072771796
  H          -0.88448679651767      2.16619718379267      1.96501897201032
  Br          2.84320277982844     -2.47708551604163     -0.68031614220407
  Br          3.28783218942554     -0.72958592231880      1.92332383504236
  Br          0.52551673727030     -2.17772745611203      1.45112376252082
