19
Coordinates from ORCA-job NEB_product E -32.410609723390
  C           1.58064537576401     -2.09828504671300      0.67761346801896
  C           1.50026445655801     -0.76721624853137      1.39027311594105
  C           1.10779260013280     -1.96679823884533     -0.76932663021975
  H           2.64785009424385     -2.36537301454646      0.68121224617479
  H           1.86228199576832      0.07096919072739      0.76573332495041
  C           0.81070038610726     -3.17651543459421      1.47759927955524
  C          -0.67239545770183     -3.10280401385459      1.27916111206991
  C          -1.48533900735698     -2.51205553377455      2.13345728961890
  O           1.11057476391451     -0.59412895001190      2.50699555147874
  N           1.33722817705934     -4.48729142165343      1.02667142650721
  H           1.07597393672298     -3.06618564025598      2.53448580909745
  H          -1.03820653376285     -3.57893834506662      0.38010600054720
  H          -1.11986671480564     -2.03422083568836      3.02693876403599
  H          -2.54648727511790     -2.46846167318319      1.96121872707064
  H           0.10210935914263     -1.55504017070459     -0.80539644094556
  H           1.10147994423193     -2.94018739436523     -1.25473800160860
  H           1.77369977166459     -1.31086716849704     -1.32423249985886
  O           0.88452045634952     -4.96128281187097      0.01315361429380
  O           2.22577367108545     -4.96891724857056      1.68677384327250
