21
Coordinates from ORCA-job NEB E -32.450726788300
  C           0.25726545826196      1.05160246338515      0.34655055773511
  C           0.12670622875307      0.73049141472070      1.68882314841220
  O           1.51350787489535      1.05787763268311     -0.18609108076654
  H          -0.43793928628653      1.76196015019550     -0.09023415632603
  I          -1.86562008983445      1.24962084202184      2.45938777357330
  C          -0.45355827531496     -0.82313893947833     -0.39557061965163
  C          -0.52288093442036     -1.65352521210095      0.70891606482903
  C           0.59613982130470     -1.79103828969293      1.53936484364128
  O           0.74139410991601     -0.16965398515415      2.28755132831072
  C          -1.69137714433635     -0.50167780535243     -1.17856779923003
  H           0.46812854245418     -0.85181462399691     -0.96401434090285
  H          -1.49801952287692     -1.84922368932091      1.13857973752663
  H           1.57800314738821     -1.77787459957419      1.08507365482289
  H           0.51811079732435     -2.39316686792757      2.43214275767400
  C           1.63758122238618      1.69322216286953     -1.43739967694506
  H           2.69968405567638      1.69370530581876     -1.67389518956125
  H           1.27219602072604      2.72429721395624     -1.39711721455570
  H           1.09286014374223      1.15086194274970     -2.21800304354869
  H          -1.51307546898889      0.28078461060813     -1.91234274891433
  H          -2.49879941294537     -0.19025060715769     -0.51931208184202
  H          -2.02030728782484     -1.39305911925260     -1.71384191428101
