21
Coordinates from ORCA-job NEB_reactant E -32.482143857320
  C           1.14960922259533     -0.05586966933906     -0.23919710813382
  C           1.00142411757187     -1.06809587733821      0.61114343515980
  O           1.69382410173005     -0.23083429133854     -1.47267435493895
  H           0.84257683167143      0.94461530339710      0.03499436271714
  I           0.06436560050990     -0.61856081457928      2.49170472575941
  C          -0.62425365314731     -4.11122377350311     -1.65245761106162
  C          -0.50379461597915     -3.23603232128318     -0.66858716881768
  C           0.48257129646469     -3.35986501584232      0.44913650041075
  O           1.45340044775645     -2.31211191979530      0.44311798131132
  C          -1.59953164325981     -3.99778360229603     -2.77307055524461
  H           0.00753024816923     -4.99026202759559     -1.66894709404695
  H          -1.12449828244066     -2.34917766432146     -0.64274713842505
  H           1.06531600270362     -4.27863967372802      0.36545036106742
  H          -0.04028238464463     -3.34899424511752      1.41892822373718
  C           1.87005637084629      0.94808078841186     -2.22172513458190
  H           2.29030004953984      0.63959766158399     -3.17689354907223
  H           2.56236014419827      1.63614226657400     -1.72552905190520
  H           0.91632949043066      1.45915228043290     -2.39181023870412
  H          -1.07081792030618     -3.98040415660499     -3.72559737190186
  H          -2.19674686189225     -3.09408679809224     -2.68412690876813
  H          -2.26353856251763     -4.86164644962499     -2.78161230456091
