16
Coordinates from ORCA-job NEB E -33.410171135200
  C           0.93975873584937      0.75104649029922     -0.60119921955230
  C           0.64679156298008      1.41423627632259      0.63425339322196
  F           2.10973016760790      0.04035141082590     -0.61682199724201
  H           0.89962768932083      1.35753804796747     -1.50568096557518
  H           0.01195046229702      2.29945918903431      0.58632445579256
  C          -0.21944343601784     -0.54343281023394     -0.69844940692720
  C          -0.67084622615230     -0.93018630687017      0.61441114829987
  C           0.33039727062147     -0.87008189951666      1.61587859283179
  O           0.61941473741297      0.72810803036710      1.71473621668087
  N          -1.31154677334497     -0.11199996043409     -1.58003493621592
  H           0.39988019305728     -1.27658912199748     -1.22145137909625
  H          -1.66855193958779     -0.61052935922847      0.88801981389597
  H           1.30218736791828     -1.28510192732580      1.35915191483036
  H           0.03442936039846     -1.09054476379513      2.63350058613689
  O          -2.07713336600563      0.70815633778744     -1.13187219752621
  O          -1.34664580635514     -0.58042963320230     -2.69076601955519
