16
Coordinates from ORCA-job NEB_reactant E -33.453270071450
  C           1.76938357298252     -0.03836693123002     -0.00708491763336
  C           1.02532041291046     -1.07489862773053      0.35282479087406
  F           2.98985429188904     -0.16888580528110     -0.54871568981618
  H           1.46846841756999      0.98883661625688      0.11268850900338
  H           0.04822507380039     -0.89395010389609      0.78439297719824
  C          -1.20158663562193     -4.49241626493804     -1.07800479485893
  C          -0.52731134948981     -3.41030820069918     -0.71074896999447
  C           0.44984631933156     -3.34990555827671      0.41991952276382
  O           1.43523326192740     -2.36708833958890      0.24066143518516
  N          -2.14296349027568     -4.44478482095361     -2.16096898872812
  H          -1.11539467926326     -5.46790356190043     -0.62487862901231
  H          -0.68797961416419     -2.48734549048848     -1.25760678430053
  H           0.98785906688987     -4.29596915899641      0.52182513597213
  H          -0.11065765472595     -3.16955552752582      1.35326083455868
  O          -2.34239274935426     -3.37964764495293     -2.70172733110334
  O          -2.67900424440615     -5.48991057979862     -2.45543710010823
