16
Coordinates from ORCA-job NEB_product E -33.454131939130
  C           0.84527884027510     -1.83643042243953     -1.14116704898546
  C           1.50001619879920     -1.35593746924645      0.14433790786518
  F           1.79491875392573     -2.10079968306189     -2.09287041678022
  H           0.19591350186372     -1.04212560236238     -1.54255665986557
  H           0.74875005820086     -1.07512890664104      0.90710541357166
  C           0.02098862938804     -3.10761076066993     -0.90110986013967
  C          -0.92874423176613     -2.98634918301958      0.25498533280801
  C          -0.99106204144387     -3.86259080430211      1.24013561888158
  O           2.67290656845396     -1.28065951508635      0.33135237022460
  N          -0.83963669959036     -3.36168251065514     -2.11263808857952
  H           0.68092285915167     -3.97389051583274     -0.79431537778284
  H          -1.60401839879382     -2.14279278091778      0.20186728658876
  H          -0.33393405166603     -4.71466253089770      1.28859688209015
  H          -1.69981339928459     -3.75594333681171      2.04210242977928
  O          -1.43107797221370     -2.41589132894288     -2.56257315468133
  O          -0.90100861529977     -4.49630464911280     -2.49615263499461
