17
Coordinates from ORCA-job NEB_product E -37.945636255940
  C           1.72443698190396     -0.75883725245668      1.56845270509771
  C           1.26153129647265      0.60168522096245      1.10141588377205
  C           1.37063902203478     -1.78626040311709      0.47740069980014
  H           2.82078988447846     -0.71944812968986      1.61794272222764
  F           1.76142535578805      0.86431788074141     -0.13570382346187
  C           1.13897887677030     -1.04851013372016      2.95867385461997
  C          -0.24015105047882     -1.60794157924482      2.94525382523443
  C          -1.27640721555385     -0.95389185883160      3.43709899377378
  O           0.60066045141887      1.40127493072341      1.65265233395782
  I           2.46469548891452     -2.39190554744125      4.06154901095077
  H           1.15935401396768     -0.11830666607884      3.53002996852809
  H          -0.35575420337479     -2.59559525573709      2.52189753972987
  H          -1.17784058488770      0.02948597574823      3.86671840004375
  H          -2.26633191342392     -1.37358303878426      3.41321116895850
  F           1.60202240099186     -3.04405517478305      0.89582844964047
  F           0.05947620665034     -1.72276157751087      0.15320546025647
  H           1.95007498832761     -1.62086739077994     -0.44452719312961
