18
Coordinates from ORCA-job NEB E -33.327235321400
  C           0.22792942269595      0.77818592769279      0.56561287967410
  C           0.32295692430138     -0.17072511130731      1.58283270905630
  O           1.28098962878955      0.91819201318998     -0.28013709142650
  H          -0.35020960305485      1.67896109766704      0.75176459910310
  I          -1.20466736477900      0.10957560593503      3.12279671156655
  C          -1.06808998501475     -0.36008330580990     -0.65350606644084
  C          -1.14226631506671     -1.63228689182412     -0.10359801424808
  C           0.04907015907977     -2.31045146777149      0.15199148588967
  O           0.80847219266083     -1.30519905196606      1.47033300282904
  Cl         -2.51400452561764      0.58466023469170     -0.78932447380620
  H          -0.37579379280235     -0.18324715817209     -1.46632202136179
  H          -2.02270209493890     -1.89423356341497      0.46845547114820
  H           0.87882685346477     -2.17928816080962     -0.52792865124074
  H           0.01143373203183     -3.26570070031875      0.65199021812418
  C           1.26544446730837      2.08474043333821     -1.07727288410285
  H           2.18738461797621      2.06861082531867     -1.65460081459423
  H           1.23803460975015      2.98506383273138     -0.45645638893190
  H           0.40719107321539      2.09322544082953     -1.75663067123801
