18
Coordinates from ORCA-job NEB_reactant E -33.359935342030
  C           1.27282766460722      0.03060249222834     -0.20740635799285
  C           1.15908437676928     -1.22020076078362      0.23215757186895
  O           1.59896688640194      0.30644502962776     -1.49424554332195
  H           1.11257837616037      0.86611340183554      0.46142191589336
  I           0.56386249851908     -1.49593743650063      2.27232116410768
  C          -0.91664214063880     -2.94273260164091     -2.81665990314704
  C          -0.69729643987734     -2.59596684468106     -1.56024481480631
  C           0.37112952559983     -3.22381305538316     -0.71905014995776
  O           1.44828931432446     -2.32688840669663     -0.46568713924358
  Cl         -2.12162768987429     -2.20591499046522     -3.78812822707548
  H          -0.36738472006851     -3.72302376021731     -3.32133937889435
  H          -1.26565353185390     -1.80099031126246     -1.09817664506803
  H           0.82818247200627     -4.07466285223112     -1.22611480505754
  H          -0.05456411587363     -3.55368685277047      0.24111638015798
  C           1.76610611514833      1.67313189060552     -1.79474729637421
  H           1.98498966653378      1.72326117094300     -2.85938447011919
  H           2.59928013770476      2.10501381373670     -1.23117025391935
  H           0.85477160441114      2.24185007365574     -1.58326204705034
