18
Coordinates from ORCA-job NEB_product E -33.176922784960
  C           1.86698461534233      0.62631736967360     -2.13076958834789
  C           0.84592301702839     -0.15840504282441     -2.89386496514804
  Br          0.98441897273755      1.64496027679169     -0.73368123161508
  H           2.60789195882112     -0.01871787556634     -1.65725623075410
  Br          1.45955767098778     -1.96993851853371     -3.26751363179680
  C           2.54687517274907      1.58943864172513     -3.12877623436652
  C           3.69511127461856      2.29606026787372     -2.46505122771142
  C           3.66762715846961      3.56764997578713     -2.11539883081912
  O          -0.20164111205957      0.20499407283320     -3.29426214166204
  O           2.95376871977873      0.76396384535416     -4.20168354070227
  H           1.79814037402652      2.32129918176488     -3.47822330267471
  H           4.55769387060174      1.66971864290322     -2.28243114387860
  H           2.80488715213942      4.18820926977420     -2.29459368900396
  H           4.50158511018688      4.03640409495158     -1.62326867978343
  C           3.42840738641293      1.47839838360223     -5.31964222299728
  H           3.69419366856903      0.72923983112997     -6.06158711062495
  H           4.30796759810425      2.07807129345119     -5.06547939707620
  H           2.65000739148566      2.13693628930858     -5.72141683103760
