18
Coordinates from ORCA-job NEB_reactant E -33.171291404070
  C           1.20165419034311     -0.13230447485724     -1.02378416805253
  C           2.24949214724287      0.67674866933144     -1.13531898091522
  Br         -0.54988156971924      0.56544104486321     -1.02102536154956
  H           1.27858989856851     -1.19764095121103     -0.91040636091728
  Br          3.98704074201306     -0.14619706298941     -1.17475063026678
  C           2.19930947679388      1.96185664006805     -4.01474425823150
  C           3.26113692977480      2.34426837568712     -3.31154331870446
  C           3.15417149422496      2.74601394752702     -1.86877354406387
  O           2.17675125251474      1.99972882242446     -1.14963990442856
  O           2.14617889825369      1.54329226918746     -5.29188784858766
  H           1.20663727457829      1.94812762230939     -3.58106660172251
  H           4.25477414646550      2.36458901381619     -3.72750517521099
  H           2.82150025088508      3.78274552252592     -1.75628442706868
  H           4.12965919378738      2.63904266676134     -1.37726195929716
  C           3.35468003896722      1.49310931566792     -6.01637204745856
  H           3.09600648373310      1.12211853080434     -7.00603196682270
  H           4.06962955204963      0.81198350427281     -5.54460341834230
  H           3.80506959952342      2.48647654381101     -6.10310002835967
