20
Coordinates from ORCA-job NEB_reactant E -37.896354713000
  C           1.33750041449774      0.32756880658087      0.28063009684833
  C           2.47623257824647      0.60510508417448      0.91772824232589
  N           0.39167511946428     -0.60102928381188      0.74832769989093
  H           1.14177907239813      0.73615320854081     -0.69867831467452
  O           3.46137617824589      1.42401553629393      0.41511890820170
  C           3.11773322058141      2.28111984775557      4.81938765846908
  C           3.10593930323448      1.97307364152320      3.53384692653507
  C           3.67973631601148      0.71390115238253      2.96233202799450
  O           2.75453613973857      0.03472924837970      2.13151955593455
  C           2.54883167440154      3.54944925162768      5.37770342924189
  H           3.57078033814833      1.64325235111699      5.56401314479114
  H           2.64941310740848      2.63963615919739      2.81433618095001
  H           3.93003609226106      0.00021824693307      3.74998384722184
  H           4.58467827263833      0.95886839291334      2.39136018717987
  H          -0.56090434179799     -0.27189662207822      0.65215009248915
  H           0.59168415311639     -0.86455221692554      1.70496710027998
  H           3.22192698456920      1.68915110817791     -0.47729059426104
  F           3.50782850247698      4.26002386457774      6.03280966148159
  F           2.06455442817593      4.36875629009019      4.41541008996986
  H           1.73456244618329      3.36845593255025      6.10144405913016
