21
Coordinates from ORCA-job NEB_reactant E -45.433014134310
  C           1.07824845362632      0.14530405989631      0.12544289740450
  C           1.02483481993521      0.05771666029726     -1.20325938875325
  O           1.55026661051791      1.24867286766064      0.74989216767185
  H           0.74033616548829     -0.68121801029705      0.73829211807178
  Br          0.22135806026324     -1.52299678279010     -1.96253736388991
  C          -0.80535087481230      3.67365181549226     -2.65213083262254
  C          -0.27729440462833      2.57483798783428     -2.13899541816528
  C           0.55829799865427      1.60306200151682     -2.90859455795800
  O           1.51022450573324      0.94582820438192     -2.08728679670001
  C          -1.65226554356921      4.61322843798798     -1.85516635803183
  H          -0.67525780837625      3.97187771012949     -3.68118863746826
  H          -0.43330339540060      2.32695607495174     -1.09680511898437
  H           1.13764350997286      2.10206246542137     -3.68766656626017
  H          -0.09814244535523      0.85489629726977     -3.38314841211942
  C           1.73700406166536      1.12719084951982      2.14320066235437
  H           2.02450572041323      2.11554544383787      2.49534902734459
  H           2.53236618078611      0.41206778038649      2.37399942382116
  H           0.81401333335997      0.81560760642126      2.64187803952797
  F          -1.83483729997583      4.22428571467221     -0.58652282498213
  F          -1.12176236814640      5.84782370381234     -1.80475001615930
  F          -2.87868528015187      4.75779911159732     -2.39000204410174
