20
Coordinates from ORCA-job NEB E -44.040244704950
  C          -0.15889472402829      0.41958789442089     -0.79499741736380
  C           0.88162535179435      0.56642322292701      0.16310153323387
  C           0.03461910405639     -0.14068358819937     -2.15911655819146
  H          -0.76103002018062      1.32465329596931     -0.85112623977772
  C           2.11724641622815     -0.31413461400234      0.16591657355994
  C          -1.56582094391048     -0.54298167892799      0.23196374543746
  C          -1.22382904610642     -0.37607631319796      1.58610705328316
  C          -0.93013878430559      0.90355524162876      2.03896279590383
  O           0.63171197952843      1.24678353834385      1.19608371590254
  Cl         -1.69120770055981     -2.18343542071170     -0.33356772667953
  H          -2.36898185045093      0.05957920982332     -0.17775406026796
  H          -0.75855561444162     -1.21335829264628      2.08898095496600
  H          -0.58958150937327      1.03513179124183      3.05417764576514
  H          -1.47872186102658      1.74385421497947      1.63590378047986
  Br         -1.66847115587003     -0.18143607101016     -3.11840340032636
  Br          1.22790973854915      1.09543230767414     -3.18369376085386
  Br          0.82937641013427     -1.90451699169898     -2.30795799372165
  F           2.92222729444050      0.02446117671126      1.21083694880092
  H           2.70780455145414     -0.19399855200609     -0.74980237646023
  H           1.84271236406829     -1.36884037131899      0.30438478630984
