20
Coordinates from ORCA-job NEB_reactant E -44.086963534540
  C           1.29457793350910     -0.54125673474252      0.06172057147634
  C           1.87694778187346     -1.23358980955479      1.05885487585104
  C           1.93273284206161     -0.12751234385225     -1.19551891502770
  H           0.26561855991438     -0.23274312556067      0.16429453875391
  C           3.30508742209643     -1.72916183036166      1.02820140084960
  C          -1.48570001363963     -2.49623902498902      4.02875903634247
  C          -0.42819130839457     -1.73472760139976      3.80349294945035
  C          -0.06968245410800     -1.21732467460608      2.44529350039294
  O           1.27520483724930     -1.59115142215832      2.19380837239881
  Cl         -1.90049829364819     -3.06864627568552      5.58754668715692
  H          -2.17717125295258     -2.79830531144548      3.25596059284596
  H           0.25060545627527     -1.46208945227118      4.59678701648052
  H          -0.15396203228702     -0.12068183169600      2.43136006115951
  H          -0.73309338981911     -1.63974549667730      1.68032809257220
  Br          0.63603784427745      0.73544769876890     -2.36520116682299
  Br          3.41026554458132      1.18884332946576     -0.92013487541540
  Br          2.70883165576194     -1.63336800305095     -2.22428905367025
  F           3.70639791528190     -2.10301781706475      2.27401791131790
  H           3.99742631953232     -0.95037694561585      0.68883347303491
  H           3.39356463243463     -2.61285332750254      0.38318493085296
