20
Coordinates from ORCA-job NEB_product E -44.086298382000
  C           1.12687109742097     -0.83407112718536      0.99846679628334
  C           2.50276266708309     -1.02655225640252      1.67879612144925
  C           1.03388025516617     -1.08139164568024     -0.49549637560515
  H           0.90810326314669      0.23658733774952      1.13897618274645
  C           3.42335819682339     -2.12041607925717      1.18010233984385
  C           0.04225559985978     -1.57557965726323      1.81295147481060
  C          -0.25543624462817     -0.86316398383173      3.09214288555433
  C          -1.47599193968002     -0.50612811468982      3.44585074732968
  O           2.78163464580296     -0.32448385391992      2.60656986590504
  Cl          0.53638162684293     -3.26639093940843      2.21878974753273
  H          -0.87015456943032     -1.67701092871267      1.21710509695809
  H           0.59843516253664     -0.66624873250539      3.72425682774106
  H          -1.66397236884849     -0.00140744147364      4.37665495603530
  H          -2.33289691018583     -0.70159063110324      2.82178156761797
  Br         -0.69128499803527     -0.40370036300830     -1.15573229183729
  Br          2.41753424744674     -0.05254142237730     -1.43578009209217
  Br          1.15467657942214     -2.93810745561359     -1.05136512091968
  F           4.54977424470033     -2.14976670852631      1.94417921837466
  H           3.74544704561929     -1.94619231100840      0.14686253031120
  H           2.94222239893698     -3.10204368578226      1.26408752196075
