19
Coordinates from ORCA-job NEB_reactant E -37.188398103730
  C           1.95348591992884      0.27528420805635      0.25806194827239
  C           1.46083008705492      1.52803245882965      0.23731641654648
  C           1.94711975233857     -0.61424321780066      1.33776278147240
  H           2.39176923936031     -0.10302737690398     -0.65732546486127
  N           1.57824362289042      2.27906146310057     -1.02570930266419
  C           3.22120093756354      2.59633829327882      2.80291304259898
  C           2.24444069151367      1.73561067060033      3.09608096763384
  C           0.86649933743810      1.85627646572111      2.51792044863911
  O           0.87710289691496      2.27935211084502      1.15193607228375
  N           4.52647464672830      2.46818361762639      3.20074302720207
  H           3.03504396303448      3.43292287261434      2.14115974070824
  H           2.42205843023773      0.89272157097245      3.74445499062652
  H           0.28024740090421      2.63669601841632      3.01475096544108
  H           0.33184947044768      0.90488570617605      2.60565390136089
  N           1.96128052365870     -1.39489021213124      2.18010715668984
  O           1.29549717117564      3.44912237427223     -0.98931407618118
  O           1.95447064024329      1.66893482761235     -2.00044667623038
  H           4.69855462109815      1.80508106943845      3.94037614239623
  H           5.07573064746850      3.30955707927544      3.25085791806521
