19
Coordinates from ORCA-job NEB_product E -37.171079008870
  C           2.74525191867697      1.45211451451173      0.83360106609250
  C           1.53540319100612      1.95737380777626      0.11768955169389
  C           2.67252022894787      0.00600526371925      0.88494003479605
  H           3.64789372657830      1.70491683909139      0.25989738754097
  N           1.66068094029594      1.79946068501955     -1.42723185878809
  C           2.87068216148323      2.04557737064469      2.26836245718426
  C           1.78364123098678      1.52612029716205      3.17128843819895
  C           0.92155409749618      2.30048170289104      3.80161764826527
  O           0.53682734248093      2.43185180274951      0.53369170595414
  N           4.21642991162242      1.74169255139389      2.72468420276505
  H           2.78814072282881      3.13533947618118      2.18182236313978
  H           1.77569898656689      0.45217968376326      3.30899156971239
  H           0.91848775126750      3.37005893658980      3.67089347291792
  H           0.17562026909950      1.89665074812154      4.46351896485916
  N           2.61928295166654     -1.13128595111604      0.96172947649544
  O           0.64564594382246      1.96970735082856     -2.04151597072151
  O           2.75249733082164      1.52669670884974     -1.86299243041659
  H           4.31701654557062      0.74821887201291      2.90935135761837
  H           4.42832474878130      2.24473933980968      3.57756056269205
