19
Coordinates from ORCA-job NEB E -46.628413640300
  C           0.28973872685211     -1.04246751092849      0.27471616947134
  C          -1.16031097375723     -0.89111475008521      0.32949693834903
  Br          0.87524189153549     -1.29213536529133      2.24578958684383
  H           0.55045399914032     -2.03147928177494     -0.10664475581012
  N          -1.91328551018390     -1.97172646435975      0.83531630525063
  C           1.00508745394921      0.04827925526903     -0.53710041348755
  C          -0.01063632343032      0.84393819678650     -1.25527806244846
  C          -1.31613490341253      1.17886943554655     -0.68645042780646
  O          -1.88178180230535      0.20133198434358      0.12249966525226
  C           1.98277804458813      0.99010998515320      0.22793352483855
  H           1.65654072503228     -0.44966474724298     -1.27142712091958
  H           0.29520840033758      1.39583637296737     -2.12665777857303
  H          -2.05072524836198      1.37313680518879     -1.47891793188710
  H          -1.26513830606204      2.11325044951538     -0.09777993163213
  O          -3.11602193106041     -1.81961712751628      0.95119008748562
  O          -1.29737977211068     -3.00369767312980      1.07351824777785
  Br          2.68304787974637      2.31025154345917     -1.04584839433853
  Br          1.11109661483747      1.99771258242367      1.64456295207270
  Br          3.56222103466549      0.04918630967555      0.90108133956113
