19
Coordinates from ORCA-job NEB_product E -46.672956404060
  C           3.13842351504466      0.76300752968482     -1.84277969538666
  C           1.73635387627558      0.39157635202119     -2.20113510823382
  Br          3.04719923828374      0.54538249491514      0.12384090807798
  H           3.84496184186385     -0.00063623686944     -2.18225580039144
  N           1.48439887362096     -1.13450619296991     -2.10243510242795
  C           3.49588049836592      2.18109336617760     -2.30690175826432
  C           3.01297891930446      3.23983720155996     -1.34888491424740
  C           1.94982900589183      3.98706385127132     -1.57447089272091
  O           0.82596371630975      1.08647992241270     -2.49808608649956
  C           4.99122155094082      2.33550454951360     -2.56659673988897
  H           2.98631497328506      2.33241203732019     -3.27000771869750
  H           3.59243569314420      3.35052721066351     -0.44244345551941
  H           1.35565991292992      3.88762507552883     -2.46747408894151
  H           1.62779792250312      4.72326631929340     -0.85993716146735
  O           0.33807990364860     -1.46715789996113     -2.18139797108394
  O           2.45838285806404     -1.83517888909086     -1.98484627325294
  Br          5.35730270044248      4.16352780359935     -3.15514155191771
  Br          6.06838440760188      1.96766851703449     -0.98720770642012
  Br          5.57093059247914      1.11640698789523     -4.00323888271646
