19
Coordinates from ORCA-job NEB_reactant E -46.676156471940
  C           2.15114070421599      0.44180665985483     -0.31582012791470
  C           1.46237751963978      0.34816300212212     -1.45628834516507
  Br          2.90788327689009      1.96473982587668      0.47368429256657
  H           2.28846862590420     -0.45606528311048      0.26917544481937
  N           0.94384643043477     -1.00100546958358     -1.79158762537922
  C           4.11032329963647      3.14716552775463     -2.52092106530602
  C           3.17922617509878      2.30057312028694     -2.92973344222299
  C           1.72744523690249      2.44751652985429     -2.59611803553536
  O           1.09235390800397      1.19191837185810     -2.42183552222108
  C           5.55642265364081      3.06329501361928     -2.81551796005105
  H           3.85225750708567      3.99629956506801     -1.89917189394914
  H           3.41609113039990      1.44437396441877     -3.54802031645924
  H           1.20079694297578      2.88046264043166     -3.45412670126108
  H           1.57511211755220      3.09718259207856     -1.72845889461494
  O           0.42451563968493     -1.12012977799426     -2.86771508032245
  O           1.08271660377592     -1.86895467564319     -0.96281228059912
  Br          6.13467434073712      4.71904269360490     -3.71710424587169
  Br          6.54322555219197      2.92048147264972     -1.10963727855877
  Br          6.07572233522912      1.56243422685301     -3.93029092195400
