23
Coordinates from ORCA-job NEB E -31.829433457930
  C           0.59693557390400      0.39438471724967      0.08532762559925
  C          -0.72056238414485      0.56146769645992      0.54213967856227
  C           0.84031279845759      0.34646532063774     -1.40692134553660
  H           1.35941736029571      0.95585578698484      0.62071220270388
  C          -0.99666284294948      1.12669954621803      1.90624113624680
  C           0.82402293328179     -1.39983437657790      0.68262983563443
  C          -0.18681362536722     -2.11610307836352      0.04376307372907
  C          -1.52773140214119     -1.70149032925467      0.33364049825928
  O          -1.65770596209079     -0.16534015505114     -0.02662779282961
  Br          2.64123721864911     -1.88961363950885      0.30239822336672
  H           0.74053185047257     -1.21283724345962      1.74835475314797
  H           0.02053351137948     -2.57281414339988     -0.91188948151209
  H          -1.79580895791772     -1.69862117612490      1.39052256481587
  H          -2.29743796094798     -2.16781001210637     -0.27145469572251
  C           0.88212634908484      1.76676691191617     -1.96500182449160
  H           0.03040214014518     -0.20580676407333     -1.88605431489546
  H           1.78600562756013     -0.14911069257553     -1.63087591397695
  H          -0.06549966259435      2.27091398107205     -1.78942514415801
  H           1.06943607643028      1.74007854073761     -3.03551330517773
  H           1.67446525830709      2.34334300542359     -1.49215631809115
  H          -0.86947107022540      0.35117766930231      2.66884792574313
  H          -2.02528362337520      1.47500415162621      1.95827847009841
  H          -0.32244920621358      1.94722428286758      2.13306414848464
