23
Coordinates from ORCA-job NEB_reactant E -31.853552186290
  C           1.78269375122988      0.03735416754913      0.11079698650397
  C           1.52083803171042     -0.76502512954430      1.13654435162466
  C           1.62058506798102     -0.29509902869490     -1.33998177804146
  H           2.14344588586952      1.03373456545667      0.32255950649333
  C           1.63826361224503     -0.34450791760584      2.57287742566238
  C           3.08191418321622     -4.26538898356940      2.44193692226873
  C           3.04788588667385     -3.23699434631372      1.61568270721575
  C           1.96055830369043     -3.04759595275930      0.59613980450362
  O           1.02537051170944     -2.05622908440113      0.97629297617066
  Br          4.43682151264814     -4.48776255375072      3.74484799235335
  H           2.35826747384920     -5.06479642197316      2.44244685787454
  H           3.79720296477381     -2.45867646983759      1.66431306820890
  H           1.36904725072132     -3.96070118929909      0.48947095684204
  H           2.42321217959731     -2.80058563749327     -0.36906773841967
  C           2.96582698930764     -0.31770196675732     -2.06775128935095
  H           0.98841346982678      0.47016704437678     -1.79932023131058
  H           1.11175115807358     -1.25368623755444     -1.45058228813625
  H           3.45694352385831      0.64932600623833     -1.98414485004060
  H           2.82341007783031     -0.54252012469657     -3.12224805926255
  H           3.62607501368067     -1.07080813566139     -1.64117485125591
  H           2.31603561354885     -1.00516550850925      3.11250765970782
  H           0.66161233894793     -0.42044885227405      3.04880421088207
  H           1.99512519901035      0.67771175707455      2.65054965950615
