23
Coordinates from ORCA-job NEB E -53.038649817480
  C           0.15858907149788      0.95354719767479     -0.20446693560772
  C          -1.13240715925398      0.87454500550226      0.34297065691342
  C           0.28198863273427      1.08575201859563     -1.71435831420204
  H           0.83831152820780      1.65452696219482      0.27301779447939
  C          -1.40830733098699      1.43905169861985      1.71182739301567
  C           0.86357648710424     -0.78783136628234      0.22801693325078
  C          -0.11915356229105     -1.62773795535391     -0.29430775832256
  C          -1.47280567998688     -1.50103082480678      0.18216627621281
  O          -1.95365620923621     -0.04878993530665     -0.10082304276590
  C           2.28317877286695     -0.92033204487969     -0.27708513673388
  H           0.85354243850083     -0.59977191295209      1.29733844263578
  H           0.04802946708317     -2.08717716108098     -1.25682219812152
  H          -1.58702603426199     -1.58315310583826      1.26308365684591
  H          -2.19973018059831     -2.10767449283089     -0.34793348845842
  F           1.57567528726528      1.26412276041321     -2.06916664620647
  F          -0.17428338821880      0.03519212971369     -2.41417178976637
  H          -0.27046895700449      1.97751411555999     -2.05898519720616
  Cl         -0.66945016674214      0.43294153864714      3.03439487414490
  Cl         -0.73784583256460      3.07132581323540      1.87278911821851
  Cl         -3.15128233193738      1.49093405041692      2.00362760065465
  F           2.33489731971866     -1.41787154597227     -1.54839886615503
  H           2.82260503922494     -1.63362815624319      0.35931328833384
  H           2.81602278887881      0.03554521097334     -0.28202666115956
