23
Coordinates from ORCA-job NEB_product E -53.070360077170
  C           2.91121489632594     -1.09949081771916      0.80972319896022
  C           1.47452016026090     -0.96386279600504      1.25694626750193
  C           3.05433971066720     -0.50179172536961     -0.60347795718361
  H           3.56928620190049     -0.50738668846878      1.45289054148846
  C           1.28323967728561     -0.39567369458441      2.67906996885820
  C           3.31720170569263     -2.60118217536793      0.95147545762152
  C           2.35410915424693     -3.52912784549160      0.26325930490457
  C           1.46821910834962     -4.25683522698146      0.91545057289937
  O           0.52591783420509     -1.22548404300333      0.58232000656429
  C           4.75497285527729     -2.85478884542846      0.47761750151940
  H           3.30636058166094     -2.81295856819461      2.02593532344237
  H           2.42995356739318     -3.57514066171997     -0.81199688891099
  H           1.37703790271395     -4.22256149890540      1.99000915044180
  H           0.79344584192276     -4.91686580949182      0.40046860212480
  F           4.35126569279132     -0.19477228547063     -0.83642315656218
  F           2.65876399516998     -1.32104417150782     -1.58667517850026
  H           2.47673740078042      0.43374579660972     -0.69551780594417
  Cl          2.37891510248865     -1.11571772539744      3.86443743308072
  Cl          1.66374540221483      1.34490600863826      2.51049640217106
  Cl         -0.38526436790205     -0.59469487259547      3.21375151233146
  F           4.85184278242078     -2.89868029017995     -0.88292821515366
  H           5.08791022535841     -3.83243774028982      0.84275800101257
  H           5.43776456877514     -2.07095432307526      0.82270995733212
