23
Coordinates from ORCA-job NEB_reactant E -53.066225806290
  C           1.71211996741183     -0.06084906096557     -0.00295329347086
  C           1.52916625256887     -0.75060306810459      1.12981708747669
  C           1.62154401088937     -0.55604660209519     -1.41274422778554
  H           1.92445676919236      0.99128839420191      0.07723383444101
  C           1.60857376336499     -0.04418002643169      2.47583818796931
  C           3.96955350368830     -4.04460006159611      1.41764230588755
  C           3.32510708126121     -3.11869918505701      0.72822862856786
  C           1.83632331586421     -3.09282875090401      0.56943301170000
  O           1.26225408360279     -2.04078036753535      1.35778839738836
  C           5.44990362133863     -4.07475095476920      1.61510108973488
  H           3.44732676966223     -4.86644550561124      1.88776215348650
  H           3.86952765858832     -2.30498483630977      0.27061515403954
  H           1.38276686399448     -3.99368423136237      0.98813271431537
  H           1.55288334048119     -3.01172175463466     -0.48090264792182
  F           2.69027185411831     -1.31813060394808     -1.77820084735733
  F           0.52907870185634     -1.33769792781622     -1.62139890314050
  H           1.56387291542693      0.28010496866344     -2.12483044464475
  Cl          3.16465176847412     -0.51753281248975      3.21765225393139
  Cl          1.53982435806906      1.71307521171412      2.39183588238944
  Cl          0.28491160423756     -0.60275794645065      3.51673480419030
  F           6.07339306370352     -3.00317593020520      1.03281088855562
  H           5.88587762277049     -4.97780777674691      1.16889577841643
  H           5.69791110943489     -4.04469117154592      2.68380819183053
