26
Coordinates from ORCA-job NEB E -54.796366990040
  C           0.51701386218087      0.43456961119045      0.27821956530507
  C          -0.81375774503614      0.01151868209209      0.58036579882705
  C           0.80499425389636      1.91547184826745      0.39067039208435
  H           1.27604887165591     -0.08337991176336      0.86655499757572
  C          -1.05288632665631     -1.12939245453199      1.52552860218748
  C           0.73518600673882      0.09471202203808     -1.54421701884608
  C          -0.52659455045127     -0.22628711378640     -2.10286610494327
  C          -1.59600943061678      0.64587824923515     -1.68943393391422
  O          -1.80106654971015      0.36540333200161     -0.17828447407412
  C           1.81779683555088     -0.93698505731301     -1.73145803232785
  H           1.10972566168735      1.07796990354170     -1.83260392093548
  H          -0.78503814501815     -1.27671280823475     -2.17935483665847
  H          -2.57458449396638      0.40334632531039     -2.09190078530063
  H          -1.38979774739498      1.71083930598710     -1.77418838292530
  F           2.01335259335087      2.25429893206432     -0.08403961954100
  F          -0.07257101229531      2.71609864031478     -0.22273781102736
  F           0.80238692891157      2.27875712042380      1.68542136444690
  C          -0.78822146136245     -0.71639112902453      2.97491234979539
  H          -0.39582432295485     -1.96417314893840      1.26626598030258
  H          -2.08770045055462     -1.45296703043691      1.41321845831516
  H           0.23629469498807     -0.37777452026588      3.10561898773131
  H          -0.95773096744457     -1.56369054017468      3.63284717685855
  H          -1.45511709053214      0.09008144405819      3.26777023003380
  Br          2.15976492546974     -1.16961405969839     -3.65114322982254
  Br          3.51155497306590     -0.42949286650133     -0.89827504428672
  Br          1.31278068649777     -2.67208477585548     -1.00689070886033
