26
Coordinates from ORCA-job NEB_reactant E -54.838767129240
  C           1.33313915799418     -0.39512595100744     -0.20707847970196
  C           1.46239004465241     -1.71599669724969     -0.40046999963066
  C           1.68561215675170      0.76388375593354     -1.06620343968184
  H           0.90068694149041     -0.07674124927330      0.72759397684293
  C           1.03891750058757     -2.66353864787483      0.69468527512915
  C           4.07959439160060     -2.82866959151525     -4.22591913291979
  C           3.00337273962143     -2.91736644607865     -3.46099777152265
  C           2.52779231021372     -1.81194995131329     -2.57581941965432
  O           1.95632608543164     -2.41660762722649     -1.42709491775283
  C           4.58128221794516     -3.86978139504804     -5.14705480980934
  H           4.68316778897031     -1.92847153630981     -4.23195949305974
  H           2.38987198713285     -3.80737890612993     -3.43332678149081
  H           1.76694927002503     -1.23478876993370     -3.11878625966748
  H           3.35569213810072     -1.15030063021668     -2.30346273523109
  F           3.00860877680403      0.88255799668501     -1.33768020524922
  F           1.07808448187323      0.77309557915466     -2.27619689137713
  F           1.33500325563327      1.91261916837190     -0.47505712157004
  C           2.21004405285410     -2.93569662108248      1.63985896865699
  H           0.72356468360154     -3.59885000421558      0.23217003987466
  H           0.20319993540889     -2.24168102785187      1.25035962041984
  H           3.04537229048492     -3.36545612332633      1.09329254441631
  H           1.90710034788793     -3.63471349649484      2.41442615975244
  H           2.54066097854352     -2.01402026831938      2.11190165623428
  Br          6.43694775296679     -4.33060594672113     -4.65992718104848
  Br          3.55174385017802     -5.51126514511704     -5.16067469245718
  Br          4.60307486324600     -3.15855046783937     -6.99017890950207
