26
Coordinates from ORCA-job NEB_product E -54.847129512600
  C           2.69998461038820     -1.58726304334873     -1.24643323624649
  C           1.41710016481500     -2.37020219909609     -0.86945659395327
  C           2.34119060114802     -0.10549144957560     -1.10658432086771
  H           3.47525492691836     -1.77131698154388     -0.49373078761065
  C           1.35912477556774     -2.81064230541093      0.56852082419379
  C           3.28797250046366     -1.81155275683979     -2.65936355971791
  C           2.28159298184529     -1.61684614535244     -3.76277033430486
  C           2.43707379255473     -0.71451909597240     -4.71308139285480
  O           0.52914056283769     -2.54514005780472     -1.65502325549107
  C           3.96470862405381     -3.17069122376739     -2.81724272963929
  H           4.09088882203302     -1.06874701331084     -2.78871452868431
  H           1.41526053468758     -2.26053722322120     -3.73692788822689
  H           1.70772060640783     -0.59800994364077     -5.49425293774872
  H           3.28919029772010     -0.05431407747660     -4.74822252301216
  F           3.37440012262650      0.69021269598201     -1.42506407767953
  F           1.31643421012801      0.27564522766951     -1.86607350899908
  F           2.01878035233264      0.19612545485618      0.16025047342716
  C           2.23826747485465     -4.03484654110022      0.83983465028019
  H           0.32113231674232     -3.06115081066695      0.79160417693639
  H           1.67387672122294     -1.98725228946247      1.21225046017454
  H           1.92375639963970     -4.87243232910174      0.22312431395335
  H           2.13797830801174     -4.32101266495610      1.88290172736205
  H           3.28856848393723     -3.83027515871328      0.64834320567426
  Br          4.83681011951189     -3.24853838095579     -4.56643753734540
  Br          5.37760335099270     -3.42763296995794     -1.47877345104448
  Br          2.74898833855867     -4.67926871723183     -2.69987716857510
