21
Coordinates from ORCA-job NEB_reactant E -45.170431503510
  C           1.50977773275512     -0.14032538674304      0.10692838667452
  C           1.83383773180358      0.67659716739979      1.12969298958214
  C           1.74017035096468     -1.58283355678108     -0.09328904573750
  H           0.99407207764732      0.33019488736038     -0.71291803018664
  O           1.47324332458364      1.96098806012261      0.98158085281347
  C           3.15938630621917     -1.47070980878742      5.06854580938839
  C           3.48597479495989     -0.68039636797936      4.06526246952521
  C           2.91156679393689     -0.83308251087348      2.69026548872598
  O           2.45852300178976      0.45478578696986      2.29000251733968
  I           3.98912027098774     -1.28319935705482      6.98561418753891
  H           2.46060233336591     -2.28555847574068      4.98080535386182
  H           4.18740473663436      0.13214240983182      4.18410365486743
  H           2.08637202295426     -1.55010536344311      2.69617344704135
  H           3.69720262893566     -1.18032625494196      2.00810595194418
  F           3.04263884951644     -1.96296190586865     -0.05446908476915
  F           1.12575000904743     -2.38909333026392      0.81172077018270
  F           1.28568243012048     -1.97440827878511     -1.28781536314961
  C           1.78591519929805      2.87342738903426      2.02252789604492
  H           1.39042949641506      3.82994605425706      1.68908345861807
  H           2.86520341232693      2.94705706660909      2.17099178932330
  H           1.31242649573762      2.57946177567775      2.96148650037081
