21
Coordinates from ORCA-job NEB_product E -45.190061873190
  C           2.26749359428739      0.14866537852986      2.06276910763312
  C           0.86803081699165      0.75545021070403      2.34247940301497
  C           2.19561866057976     -0.53375088004508      0.69786037218276
  H           3.05304259437832      0.90548055011439      1.99754000846774
  O           0.67040719286462      2.04790280295055      2.15144473723209
  C           2.58482937000675     -0.87695681798672      3.14961044589111
  C           3.82248192867185     -1.65578020306626      2.89268651848304
  C           3.85624796105598     -2.97614187085720      2.91275151796939
  O          -0.02434826202855      0.05130804489849      2.71790943077938
  I           2.80310042386754      0.22809195601195      5.02499868466425
  H           1.72136468475104     -1.52615558186778      3.30129380517902
  H           4.71436785333790     -1.07677432518330      2.69204477020968
  H           2.97545556507857     -3.56323432511349      3.11433857045236
  H           4.76439541835374     -3.51844629670233      2.71847427729527
  F           3.41248854290021     -0.86444545993355      0.23557972765905
  F           1.46675184110671     -1.64607209158112      0.69829721583454
  F           1.66810855140457      0.28812972482828     -0.22626773538531
  C           1.67332899908613      2.95409660560016      1.72162219376897
  H           1.16458563914579      3.91205479310997      1.63035528222754
  H           2.08122948917520      2.67249067679515      0.74870471197468
  H           2.46981913498482      3.04528710879398      2.46460695446635
