24
Coordinates from ORCA-job NEB_product E -48.719698082470
  C           2.16855002305235     -0.70049444867285      2.15200398135924
  C           0.80864103616461     -0.40534768342482      2.82388134976958
  C           1.90132703356330     -1.00330666012217      0.68101601410257
  H           2.83465245604998      0.16340596910595      2.19232002896876
  O           0.53491958274408      0.82552085480278      3.23275697126835
  C           2.82633844793275     -1.87294562971748      2.91388532842982
  C           4.15213523079708     -2.26272550118868      2.32728269764659
  C           4.43313150219747     -3.47875543943669      1.90101402805989
  O           0.00910386593247     -1.28189849419130      3.00232110560475
  C           3.01490461429975     -1.46153014801605      4.38021362804242
  H           2.14289620315681     -2.72626532567944      2.90494264002159
  H           4.89839806783796     -1.48027347338637      2.31382991291227
  H           3.69913617936641     -4.26746232840410      1.91266784157748
  H           5.40323776466123     -3.73153578678385      1.51053026873549
  Cl          1.11819262797801     -2.56713951617313      0.43744769312024
  Cl          0.82261437930260      0.26536783586887      0.01637983585564
  Cl          3.40540054931732     -0.96365896203091     -0.26915383933674
  C           1.41534779733245      1.92824362208971      3.08429448506581
  H           1.63520232127290      2.12385105106716      2.03276433984089
  H           2.33855170652936      1.78047500970894      3.64894049501101
  H           0.87434330799447      2.77634268230127      3.50064776753276
  F           3.69588196285279     -0.26908470269915      4.46638951317736
  H           3.60966079442041     -2.20611600963574      4.91628469463289
  H           2.05493254524343     -1.31326691538193      4.88353921860133
