25
Coordinates from ORCA-job NEB E -44.309595019880
  C          -0.36955244178812      0.63535382933521     -0.58278940828259
  C          -1.40175126779035      0.15402709388633      0.56431488721221
  N          -0.94781076130713      0.73676708522695     -1.87129710827771
  H           0.06779247182420      1.59681070001215     -0.30688642277186
  C          -1.37104054617289      1.18137789335350      1.71741553739555
  C           0.55514489834146     -0.56897820952054     -0.35958311683109
  C          -0.44828635993959     -1.19248571099436      0.61387819821761
  C          -1.43598735065903     -2.04173854950367      0.00744825517347
  O          -2.61882667923017     -0.18893105546122      0.25652468233253
  C           1.92537159922461     -0.24666301209435      0.22254176502063
  H           0.68294249484783     -1.15950186595400     -1.27022879688932
  H          -0.11128416228883     -1.45355265122756      1.61196674512941
  H          -2.24608138442459     -2.43959762013153      0.59198990310078
  H          -1.38965256530803     -2.30348375237504     -1.03547606290538
  H          -1.41198142060431     -0.12352920663366     -2.14296167544878
  H          -1.62327533426303      1.49171690774523     -1.91688307251485
  F          -2.11039517909221      0.79925460132919      2.76134835008951
  F          -0.12284241526685      1.37470708299176      2.19859763848567
  F          -1.81047462742079      2.38552125734367      1.32896315206859
  C           2.82809619658615      0.40947875770266     -0.81548943958919
  H           2.38322269274455     -1.17687087355374      0.56744935610743
  H           1.81621019646504      0.41187161877030      1.08461155190793
  H           2.99701763908895     -0.26209028728503     -1.65406966547342
  H           3.78941811209340      0.66006084036007     -0.37534786600331
  H           2.37402619433972      1.32047512667767     -1.19603738725382
