25
Coordinates from ORCA-job NEB_reactant E -44.393368144010
  C           0.81103639618725     -0.07406807973878     -0.19421290890139
  C           1.43309414449715     -0.76849934495369      0.77409409009781
  N           0.02193927690686     -0.64376061464060     -1.14841112918581
  H           0.96541825318209      0.99201364027653     -0.26761963570166
  C           2.35353193449238     -0.05810265142180      1.72450578026889
  C           4.67061782893848     -2.64088930518438      0.38743927481728
  C           3.54046010985028     -2.93799250574700      1.00695404439280
  C           2.20296081786208     -2.97696545630372      0.33569361462319
  O           1.23353371930546     -2.12017690930652      0.95756839651780
  C           6.01348474434966     -2.59733894089201      1.03988927750750
  H           4.66124687477215     -2.40914776850244     -0.67097732649905
  H           3.52758453979621     -3.15731817869994      2.06561955890250
  H           1.75992767067825     -3.97350154295538      0.42945747885239
  H           2.29760295232127     -2.71699553169971     -0.72673020380752
  H          -0.26491978121800     -1.59135695113677     -0.95276823936856
  H          -0.67054488523208     -0.06154436984547     -1.58736268564579
  F           1.85035014105497      1.13362718644275      2.11604385120695
  F           2.60704770144920     -0.74918052297322      2.83545398699139
  F           3.55824151586519      0.24442944579258      1.18023334937944
  C           6.70556594351154     -1.25913246834972      0.78571260361921
  H           6.63237528214691     -3.40250053000846      0.63104794305533
  H           5.90727738924127     -2.76314358206513      2.11301553783518
  H           6.85239899419375     -1.10187435238703     -0.28059650049383
  H           7.67608230692699     -1.23522313564675      1.27553330712115
  H           6.09898612892071     -0.44425753005335      1.17121653441482
