25
Coordinates from ORCA-job NEB_product E -44.379936897410
  C           3.03456966011274     -0.51143092123105      0.23871716824963
  C           1.67508334342105     -0.62071575800015      0.88404485897347
  N           2.86676295607805      0.04590279085752     -1.08268720637234
  H           3.67267536462781      0.16051033616603      0.82288485358462
  C           1.62023227558760     -0.34826874736329      2.41613493842859
  C           3.64998422400433     -1.96068628579381      0.26995519828005
  C           3.00381675985746     -2.79856396457268      1.33922221073038
  C           2.08229926337952     -3.71683201801533      1.10970915610772
  O           0.65428662554969     -0.86164608740617      0.30611055905620
  C           5.16544811473546     -1.92668418796083      0.49166079097344
  H           3.42828695872219     -2.41244217652512     -0.70365358334287
  H           3.35968537113591     -2.62295398893182      2.34539685307614
  H           1.64384732539174     -4.29029316400449      1.90729871675628
  H           1.71614915103941     -3.92144609728253      0.11681601275846
  H           2.04814185262786     -0.35183690255301     -1.53115811365480
  H           3.67687408966720     -0.13027475766562     -1.66279780392837
  F           0.92143557900721     -1.27935285314189      3.06953525246376
  F           2.82593707381057     -0.28098080870441      3.00007667394985
  F           1.02513553897341      0.83092710489337      2.63998205123903
  C           5.94082381106577     -1.22523482638599     -0.61701378327882
  H           5.50869057343198     -2.96157077377869      0.56693554193050
  H           5.37296739039265     -1.43970995520391      1.44697119363776
  H           5.72564514066033     -1.67702832688951     -1.58376402754384
  H           7.00863065694912     -1.31710419296991     -0.43368020474032
  H           5.69919089977090     -0.16588343753673     -0.65879730733452
