20
Coordinates from ORCA-job NEB E -53.748272454340
  C           1.06963287916243      0.47365924324467      0.35384783671026
  C           0.43017203275129      0.96985551673851      1.49575877858322
  C           1.07025182197181      1.38748939859163     -0.85880817538759
  H           2.04784894352222      0.01498746343671      0.47020246901254
  I           1.08164294964652      0.16830111743220      3.37846584636676
  C          -0.17707348905201     -0.97520194984550     -0.05040202832384
  C          -1.42097035232619     -0.34292803487282     -0.07482846751979
  C          -1.86007535611830      0.30775312373243      1.12017496829178
  O          -0.75760759052696      1.42564535617238      1.44374780317310
  C           0.27826565824203     -1.69337563246871     -1.30181963150805
  H           0.08822607362854     -1.56743257416408      0.82361367561166
  H          -1.82327104043703     -0.01538465041279     -1.02167061742597
  H          -1.82291016210645     -0.28428980029243      2.03433393831831
  H          -2.77028397055317      0.88935566601344      1.03729043077244
  F           1.75327017698677      2.50922393423839     -0.57059518752211
  F           1.68831466376919      0.83421431672201     -1.90319957327525
  F          -0.13614941044750      1.77689516475479     -1.27207405658582
  F          -0.08396990370717     -1.08859204723160     -2.43191060828361
  F           1.60549597872756     -1.86519145967103     -1.33633658539917
  F          -0.26080990313359     -2.92498415211821     -1.33579081560887
