20
Coordinates from ORCA-job NEB_reactant E -53.777956218370
  C           1.68549102557241      0.07693662676448     -0.05905176742177
  C           1.05447036286778     -1.05166159257445      0.27471716730532
  C           2.13668366803441      0.30215763904503     -1.46578870986717
  H           1.90538291594926      0.85629079199223      0.64602126705901
  I           0.43382127417749     -1.29384138672630      2.28869855120092
  C          -0.22473949264836     -5.24933695026685     -1.61605490015703
  C          -0.08869897736083     -3.93479067406093     -1.58334575113691
  C           0.04136691464628     -3.14392557087510     -0.32234906860215
  O           0.83473099642450     -2.00855047247247     -0.60813979705772
  C          -0.39536714785390     -6.01596143897629     -2.89117159011472
  H          -0.23890720995986     -5.87047043161536     -0.73285790295999
  H          -0.07139599595823     -3.34674671162123     -2.49088795369333
  H           0.49998829226251     -3.74383273246562      0.47401519100091
  H          -0.96043741230093     -2.82818016470378      0.00702573800643
  F           3.08081558425107     -0.57167908175411     -1.86097223425287
  F           1.13703422697469      0.19151485510488     -2.35968300984460
  F           2.65738021098435      1.52382124058743     -1.62189953492235
  F          -0.36785008303017     -5.24714618737007     -3.98412105856039
  F           0.56273312784771     -6.94432630551650     -3.04327479896708
  F          -1.56610228088020     -6.67777145249497     -2.91407983701452
