20
Coordinates from ORCA-job NEB_product E -53.791362843800
  C           1.54497483292828     -2.18921589141378     -0.89347345885755
  C           1.00414572846656     -1.35866372897229      0.25075653063417
  C           1.69974833106970     -1.27943371007077     -2.12414525890415
  H           2.55536709543526     -2.54714475320213     -0.65926545169977
  I           1.41684732080977     -2.25097023992566      2.16839827004613
  C           0.60381485964837     -3.40734477762972     -1.06679765620058
  C          -0.85052371641654     -3.02350932137687     -1.18687611771106
  C          -1.74096795108831     -3.31634653116289     -0.25868528562995
  O           0.39513472047576     -0.35505069716603      0.18078041200225
  C           1.00383343354875     -4.29372292772377     -2.25212430780778
  H           0.73475794250098     -4.04235816435000     -0.18017311289671
  H          -1.13047677242822     -2.49686359266961     -2.08689068450645
  H          -1.48200065723707     -3.84867920409645      0.64255615602276
  H          -2.77237781922194     -3.03343167530720     -0.36862590024805
  F           2.37428412957600     -0.17181505912880     -1.78515102365963
  F           2.41614471676193     -1.87059922052881     -3.08244180082110
  F           0.54966292771921     -0.89003067409252     -2.66642167495072
  F           0.67357124188176     -3.78416268095043     -3.43761852164688
  F           2.32068621766037     -4.54115143468923     -2.26975660771655
  F           0.39177341790942     -5.48090571554302     -2.15844450544840
