16
Coordinates from ORCA-job NEB E -26.411795747000
  C           0.62994582646542     -1.04140276168670      0.69856788691821
  C          -0.71881374628282     -0.81019284157428      0.42864230317913
  F           1.13636506459916     -0.61107834006820      1.88053393206207
  H           1.08646901025975     -1.98643329755176      0.42003519637974
  N          -1.32034749945497     -1.52496114099281     -0.60872182151094
  C           1.37928414364295      0.38792654802208     -0.48722411137704
  C           0.74566994798476      1.50712230171284      0.01278286890324
  C          -0.68616991147995      1.55286652035672     -0.09519290202455
  O          -1.26071837932570      0.33510751070098      0.75018485969100
  H           2.44045554207317      0.27350165273863     -0.31991253298364
  H           1.02175586675046     -0.04962158018955     -1.41024334450798
  H           1.20640835465193      2.05035177263429      0.82388611227021
  H          -1.08122843715434      1.34406987997765     -1.08894320215167
  H          -1.17549836884972      2.40015558180679      0.37153359182207
  H          -2.30249623797267     -1.32092380147658     -0.71663856270034
  H          -1.10108117590742     -2.50648800441010     -0.65929027396951
