16
Coordinates from ORCA-job NEB_reactant E -26.434892826620
  C           2.15410169775600     -0.00878441428982     -0.30130998568196
  C           1.59390624710298      0.05548045477766     -1.51364811341697
  F           2.67011060624703      1.05814640786156      0.37181195680382
  H           2.28237259836248     -0.93122624710038      0.23690546017287
  N           1.15692868100669     -1.10569080860038     -2.14507883619172
  C           4.21267673230161      3.01431076736861     -3.22616775313791
  C           3.55069397363000      2.19320050512473     -2.43463632549653
  C           2.09472622816701      2.33734332540198     -2.10904220047266
  O           1.36448348031233      1.13292154911367     -2.30790097553359
  H           5.26346257479132      2.88905956266632     -3.42247503090552
  H           3.73359440035191      3.85480678298052     -3.70123999996947
  H           4.04442350896545      1.35388532588876     -1.96528327939914
  H           1.61776842593718      3.05375220251183     -2.78248898728092
  H           1.97612369354475      2.69159138453726     -1.07783107358533
  H           0.51165061510249     -0.90633431659895     -2.89534440321905
  H           0.84347653642078     -1.83956248164336     -1.53007045268594
