19
Coordinates from ORCA-job NEB E -28.664828932570
  C           1.01322252288333      0.09419968297756     -0.83111037714065
  C           0.38238805811661      1.28688635415356     -1.19587825912241
  N           0.65698542719405     -1.11556606653989     -1.42435532956431
  H           2.04934415604336      0.13896386435921     -0.51887742570818
  I           1.37270216959666      3.09859628873912     -0.45192833525564
  C           0.02966257637806     -0.06787932542263      0.97365433245206
  C          -1.28349965593769     -0.05350536546265      0.52607875855409
  C          -1.82398707060438      1.12257536206948     -0.01894050502389
  O          -0.84159193375304      1.37143013671164     -1.45100610823372
  C           0.62968367357417     -1.32211728889221      1.53444479192725
  H           0.42104504058782      0.84586869895876      1.40758063335745
  H          -1.74056388074808     -0.99762959045314      0.26250314986828
  H          -1.58547064297922      2.06578904635289      0.45953082068348
  H          -2.81320202117152      1.08851174843950     -0.45139472783603
  H          -0.19284505070629     -1.05938637446596     -1.96866600029820
  H           1.40282442788568     -1.58723958182171     -1.91149892175427
  H           1.70901179567220     -1.23484616255136      1.62662623010641
  H           0.39383221392989     -2.17581192224233      0.90441625064601
  H           0.22045819403839     -1.49883950490985      2.52882102234224
