20
Coordinates from ORCA-job NEB_product E -47.955646900460
  C           2.55500133737768      2.12778571743349      1.29592847450633
  C           1.25680021185925      2.79825774489784      0.92274597186768
  H           2.47737877715304      1.10063736780359      0.92548323322699
  H           3.40014500463327      2.59453575708280      0.78812404490535
  C           1.25404681581307      3.44868021667157     -0.47657976546661
  C           2.75255361592745      2.07556771873549      2.81769788814440
  C           3.56589398823383      0.87219031967349      3.20993358589939
  C           3.20241380897314      0.02458448913226      4.15338652762787
  O           0.26637300767365      2.77735899759964      1.59037544188673
  C           3.42444788924748      3.34320758316497      3.33801265661597
  H           1.76345402117296      2.01662415411417      3.29215160356246
  H           4.49312067098297      0.74186404874826      2.66852600463057
  H           2.28423624760717      0.14202028998195      4.70530185641972
  H           3.81159999365580     -0.82316980312254      4.41247551425593
  Cl          2.59396841721760      4.59613715615900     -0.66595280558332
  Cl          1.45761679865323      2.11442686219400     -1.64572635050854
  Cl         -0.27755494912221      4.27269805466547     -0.77812919336773
  Br          3.55418546427810      3.28270708645899      5.28152065388602
  Br          5.23040607455246      3.55119749381222      2.62867698427751
  Br          2.41641280411006      4.95428874479334      2.86224767321329
