20
Coordinates from ORCA-job NEB_reactant E -47.940494893810
  C           1.58793352822287      0.18247845127938      0.19406596969289
  C           1.60558842638413      1.50716540261942      0.24441907260330
  H           2.05829786392001     -0.42692181786948      0.94226245098511
  H           1.09603868914061     -0.33168301370089     -0.60743765306948
  C           0.95787306990436      2.40666423562533     -0.77858731192806
  C           3.50139550245623      2.67798045127246      4.43088318743420
  C           3.44856378852946      2.73409822649178      3.10983299892756
  C           2.85660252387241      1.65851508944449      2.25932649319756
  O           2.18492640838577      2.29039738993183      1.18960128342592
  C           4.10581805888210      3.69036726686048      5.32261576174273
  H           3.09650219348373      1.82846120425502      4.96880590554742
  H           3.83509336695431      3.57666098968801      2.55339318547505
  H           2.16448565457550      1.02946155848896      2.83409005266737
  H           3.66750122157812      1.02374770145696      1.86769878168980
  Cl          2.20055369106665      3.47462887505775     -1.48223085575566
  Cl          0.17269003611650      1.52814679094664     -2.08585936814970
  Cl         -0.26313431172794      3.42192073292619      0.03468131898333
  Br          2.75707692548680      4.30387054089828      6.62205123131178
  Br          5.57885968473208      2.84991116736063      6.34048754778053
  Br          4.82363367803632      5.24952875696674      4.42499994743833
