23
Coordinates from ORCA-job NEB E -63.719881032400
  C          -0.14601578940594      0.93584679317673     -0.48667191516086
  C           0.73592793885774      0.11086183985659     -1.24380645220216
  C           0.26633003142683      2.26429963882940      0.09992452705141
  H          -1.03437501709019      1.10896366340784     -1.09227726411957
  C           2.22224398206635     -0.15037691474425     -0.95105671326745
  C          -1.11320923909264     -0.33087260166047      0.66338419297414
  C          -0.92309082605829     -1.58361303447968      0.02757724619138
  C          -1.16442847128453     -1.72023933202501     -1.32894561401378
  O           0.21703259820117     -0.75949834661324     -1.99712685970938
  C          -0.82935024443038     -0.36068003423999      2.14854460744209
  H          -2.06792661981815      0.15920825812833      0.48558096726399
  H          -0.21626030365245     -2.27085481579754      0.47841099442401
  H          -1.95711804606892     -1.14664731936268     -1.78981386273347
  H          -0.95459367425265     -2.66503530429015     -1.80560556989030
  Cl          1.13856305870592      3.16959595902491     -1.19939966381858
  Cl         -1.20685091516796      3.21103848145647      0.46769690879657
  Cl          1.30147335207082      2.23829127040014      1.52589216790900
  F           2.87465860609034      0.82503101806592     -0.32480526494548
  F           2.35398972707039     -1.26021627991092     -0.20192735142785
  F           2.87137124148044     -0.38001744454071     -2.09517039271587
  Br         -1.35605356295369      1.23635725286293      3.11198128170243
  Br         -2.00420478173763     -1.78315630247710      2.89599253117345
  Br          0.99188695504339     -0.84828644506752      2.61162149907627
