23
Coordinates from ORCA-job NEB_product E -63.765991598380
  C           1.16355721317490     -1.89845318306166      0.74020512378876
  C           2.46608372507641     -2.61183996294993      1.11194568295960
  C           1.13503380523208     -0.37167524713502      0.61111321716343
  H           0.98615535174898     -2.27314582809012     -0.27999493620695
  C           3.81012647340757     -1.89375381759491      1.43447967831949
  C          -0.05404939853230     -2.37039357115077      1.60150560910012
  C          -1.06888746485543     -3.08657238718065      0.74890186313658
  C          -2.35377990267349     -2.78718513446548      0.74682237605093
  O           2.53484007641352     -3.80354842545580      0.97254609676596
  C           0.26127559834181     -3.23784422217029      2.82157102180965
  H          -0.51669720172234     -1.46236590510893      2.00690278712636
  H          -0.67963428196006     -3.89597688448689      0.14679757495446
  H          -2.75843752529282     -1.98785291089247      1.34522966781799
  H          -3.05310485615458     -3.33387649342727      0.13982496529125
  Cl          2.44836867544430      0.21677320758940     -0.43273126909644
  Cl         -0.40999418824151      0.06315378465072     -0.19925910662643
  Cl          1.16924605932133      0.47497420065206      2.17466602293815
  F           3.73638820332083     -0.71134408777045      2.03978035758419
  F           4.54928342875424     -2.68564067942664      2.20892366302238
  F           4.48916387206534     -1.72020740423392      0.29206602941275
  Br          1.79173856443096     -2.53082557175851      3.82731601512357
  Br         -1.27892269466889     -3.16556542431493      4.01333470055553
  Br          0.56994646736915     -5.11353405221755      2.45315285900866
