22
Coordinates from ORCA-job NEB E -36.976560081090
  C          -1.01412210278167      0.05108345910946     -0.44212166803079
  C          -0.15516054543521      0.40938014021288     -1.48759545337247
  C          -1.58155683262291      1.13535233846050      0.43423473593831
  H          -1.70440964695158     -0.76080279197871     -0.64760203270118
  N           0.07088269640511     -0.47596318004234     -2.53281979461619
  C           0.42868957195364     -0.78408319820263      0.65818058792543
  C           1.34510612563511      0.24753540212403      0.83943946663814
  C           1.93761885408477      0.78775283857781     -0.34801964796896
  O           0.76176794872666      1.31989031242042     -1.29072817584985
  C          -0.22214841166116     -1.40111876269428      1.86893948997248
  H           0.66570775452324     -1.55123390955237     -0.07399666238108
  H           1.23841398351322      0.88729804781607      1.70166159896675
  H           2.41212768976805      0.05587250695223     -1.00060143979264
  H           2.54929735423187      1.67230732791810     -0.21374807628512
  H          -0.82790494853039      1.88999078371631      0.64181348491049
  H          -1.95806466464756      0.73387996320420      1.36941611662844
  H          -2.41422343886589      1.61506923494896     -0.08151433822408
  H          -0.71532034944835     -1.01721015377301     -2.85161049134547
  H           0.66839663769426     -0.12517820244278     -3.26506870103373
  F          -0.53813266727185     -0.49894852995271      2.82738057515131
  F          -1.38228835356096     -2.03700202211165      1.55462925242299
  H           0.43532334524160     -2.15387160471048      2.33973117304721
