22
Coordinates from ORCA-job NEB_product E -37.033671613460
  C           1.77486383728475     -1.53991820166920      1.00289614828238
  C           2.04207040310459     -1.86450035569632     -0.47277193736815
  C           1.65373141184046     -0.02919178240663      1.22044559352614
  H           0.81850737891646     -2.01332284911538      1.26089243058573
  N           1.11273656400134     -1.37629606534288     -1.32381046091598
  C           2.88489373094042     -2.17689604623456      1.86888312170576
  C           4.09225169916184     -1.28942511829045      2.01600425039348
  C           5.17837585436596     -1.42061601038674      1.28042510175654
  O           2.97800667112829     -2.52405803792221     -0.85974700725332
  C           2.34476499888899     -2.56705171618513      3.24202244694587
  H           3.19348350588705     -3.10512093085799      1.37534882077387
  H           4.02240965610776     -0.52754192960167      2.78031311447789
  H           5.24932501774333     -2.17467917282165      0.51497723427033
  H           6.02652938574547     -0.76899173836526      1.40308061647381
  H           2.53792755755066      0.47782022785032      0.84201032987132
  H           1.55408137664492      0.18791479384837      2.28040208363615
  H           0.77921082652035      0.37415987503437      0.71520724023480
  H           0.32275367943860     -0.83881891775601     -1.01836143836955
  H           1.23010209374898     -1.54537758578990     -2.30891894213150
  F           3.28680141699425     -3.21954588294851      3.96416896146653
  F           1.99455711662055     -1.48437655987869      3.98476191531097
  H           1.45951581736498     -3.22216599546385      3.18767037632691
