22
Coordinates from ORCA-job NEB_reactant E -36.999322247830
  C           0.96345812379337     -0.23595864008486     -0.17028673711502
  C           2.06046185858892     -0.92012088240600      0.15837967156198
  C           0.56703970577196      1.06745975387098      0.44487391992498
  H           0.31542104443082     -0.63523641734746     -0.93511641384579
  N           2.48623021666386     -2.07342398344854     -0.51194569781911
  C           3.18659932801918     -2.77396534426359      2.74676149411421
  C           4.22110329722225     -2.26382169734711      2.09809260463601
  C           4.16148238246092     -1.00553763241782      1.28283780419074
  O           2.87439540563063     -0.45408337586115      1.16474402739574
  C           3.23952556463811     -4.03670789480415      3.54710148406991
  H           2.21184403052351     -2.30772958372446      2.71863557899142
  H           5.19194532030984     -2.73768415038469      2.13961384906000
  H           4.59855809109068     -1.19335690084717      0.29320722143845
  H           4.76490473961703     -0.23780842053627      1.78285160426751
  H           0.43893288297686      1.82904404007343     -0.32451263810666
  H           1.32853712959223      1.39528677754038      1.14558903452864
  H          -0.38059868186734      0.96995413296404      0.97578437748715
  H           1.80440584015321     -2.38614728331338     -1.18750253843434
  H           2.76490439052978     -2.82995164218037      0.10088410593338
  F           2.40888428887459     -4.97468631520062      3.00756444668702
  F           4.47357316136957     -4.59338093566010      3.55529948087748
  H           2.92679187961004     -3.89494360462108      4.59524332015629
