21
Coordinates from ORCA-job NEB E -32.847820658890
  C           0.70369669206234     -0.12004205248067      0.15193356598350
  C           0.75822308394019      1.25943941077673     -0.25000634984621
  C           0.73068657788703     -1.25731132918520     -0.72713208507664
  H           0.64204698937943     -0.99772523675742     -1.78544729499531
  C           0.68984637469694      1.58332781558160     -1.73079920678446
  C           0.45971225540627     -0.47552896679064      1.54730856510096
  C          -0.58528453610519     -1.49468180533320      1.78091424671340
  C          -1.56044650590149     -1.45608562584549      2.66424305940318
  O           0.88731559766991      2.14016194327069      0.59063451130569
  I           2.33173914083958     -1.54974414619210      2.22215815504477
  H           0.37028297535620      0.41047173991788      2.17223157881745
  H          -0.43158859644749     -2.34889082992483      1.09655156995745
  H          -1.67138872436341     -0.63529579464602      3.35464719683440
  H          -2.28541697891147     -2.24759472463907      2.74042384048012
  N           0.67500915035643     -2.44159960030098     -0.38823767727681
  C          -0.75691430813648      1.54052980705753     -2.22566513168175
  H           1.31239822593129      0.89018019024941     -2.30300866395744
  H           1.08592607464348      2.59099907923037     -1.86541145815759
  H          -1.20110426607583      0.55680325084721     -2.08021137171130
  H          -0.79874263929096      1.78606595390927     -3.28430196655900
  H          -1.35599658293679      2.26652092125492     -1.68082508359443
