21
Coordinates from ORCA-job NEB_product E -32.947368993190
  C           1.13372620293729      1.28083444071764      1.68770824807631
  C           1.84488864601051      2.63080714325047      1.43647653237650
  C           1.21353209278381      0.34580793731377      0.59511731903130
  H           0.07191409111238      1.50844552049895      1.86698908421100
  C           2.52389713528355      2.80455020779123      0.10954268666161
  C           1.69305661564785      0.67339057253516      2.98332281499427
  C           0.99731774971704     -0.57420848788744      3.38687166093871
  C           0.49780132421217     -0.76350722361303      4.59522311430747
  O           1.81019485980657      3.47234372178996      2.29243797190655
  I           3.83066413468180      0.24554797283339      2.72052746142819
  H           1.65860137622821      1.42808676768770      3.77035133412094
  H           0.92694591951743     -1.33904001619520      2.62417575372510
  H           0.57143642001419     -0.01247716425416      5.36518603269863
  H          -0.00398130659582     -1.67701071200370      4.86142021635141
  N           1.26772834788965     -0.42248641662820     -0.24976607412575
  C           1.47886832306581      3.12578376159417     -0.96462971925573
  H           3.06065608385986      1.89389206757233     -0.16253480217978
  H           3.23032083749225      3.63237412034499      0.19056857114199
  H           0.78343422090403      2.29957906222644     -1.09437469224701
  H           1.97794618268632      3.30287658124429     -1.91321691161751
  H           0.92015074274510      4.01931014318124     -0.69459660254420
