14
Coordinates from ORCA-job NEB E -30.777572527820
  C           1.19153015701770      0.55661771814182     -0.68827553773147
  C           0.62201900806474      1.35489135353032      0.30709020613915
  F           0.71744577161353      0.70142445819881     -1.93498663135980
  H           2.26188512437650      0.36822076806341     -0.69138591560591
  F           1.36169347991454      1.38131745266295      1.46832785899806
  C           0.32728618093950     -1.15172889284441     -0.16833362262827
  C          -1.01720985929669     -0.79937034455322     -0.18539710777919
  C          -1.46427048113094      0.14381779230968      0.77146366372399
  O          -0.61580340222377      1.55226534457237      0.42063721843456
  Br          0.96701050299845     -2.40990234069874     -1.45202013883235
  H           0.84698837598479     -1.27195755910304      0.77580687234042
  H          -1.57126517392041     -0.91572932414771     -1.10534080989819
  H          -1.14024501115797      0.00581876900195      1.79834578769296
  H          -2.48706467317998      0.48431480486582      0.68406815650602
