14
Coordinates from ORCA-job NEB_reactant E -30.803883637720
  C           2.02030996785908     -0.01500964230128      0.08470659011584
  C           1.27818575628656     -0.85870596944059      0.79423493971456
  F           2.31410911155425     -0.24909364875889     -1.20403800368874
  H           2.43358440046885      0.89582870909831      0.48039748317451
  F           1.02776051390050     -0.54577854926673      2.08242633612805
  C          -0.48238944756264     -5.17644260916601      1.01855681058467
  C          -0.55847364929781     -3.95079580980468      0.53238194536785
  C          -0.05558658869672     -2.75016654066507      1.26665004473890
  O           0.74918207664475     -2.00220565189934      0.35979318497834
  Br         -1.15807955233016     -6.67580140620537      0.09931848062144
  H          -0.05548566938509     -5.42215292481386      1.97842270667764
  H          -0.98521871647804     -3.75386291971794     -0.43987179740742
  H           0.52993902424668     -3.03989184357089      2.14776072360909
  H          -0.90553722721021     -2.13542119348766      1.59776055538526
