14
Coordinates from ORCA-job NEB_product E -30.822789246590
  C           1.45402582940573     -2.00123925236325     -0.06064544010670
  C           1.10649380491372     -0.72392905327153      0.67326656874478
  F           0.88570889647007     -1.96335217447608     -1.30088024255103
  H           2.54355821115160     -2.06247465809562     -0.19826312535200
  F           1.81778842349020     -0.67793709426849      1.83650206405407
  C           0.93096266793637     -3.19764080509185      0.74636269945725
  C          -0.55717993292090     -3.21680871954015      0.81748478407585
  C          -1.22293342865871     -3.30423944406854      1.95406697083756
  O           0.35757459161148      0.13400278604656      0.39659043467340
  Br          1.57674948727426     -4.86399979734270     -0.11364906521942
  H           1.38910284363283     -3.19280109237651      1.73784538448020
  H          -1.06358061536566     -3.16456825589071     -0.13621112072523
  H          -0.72252823133913     -3.36604045117669      2.90700606153430
  H          -2.29804254760186     -3.31527198808442      1.97382402609698
