24
Coordinates from ORCA-job NEB E -53.432948955800
  C           0.05159883349979     -0.94622533410315     -0.32583844206459
  C          -1.33139279685081     -0.82173086610869     -0.50258818275961
  C           0.57782315852549     -1.86691020211442      0.73372003066775
  H           0.65566549367457     -1.00398011720618     -1.22460604148737
  C          -1.81259497893204     -0.45111616172068     -1.91142792862077
  C           0.53195147109446      0.92438440597106      0.55232490864576
  C          -0.73724750037155      1.47673574671657      0.78227698369928
  C          -1.67082625894513      0.79971612508899      1.54345714742244
  O          -2.13844118259723     -0.64847485107700      0.44794805752155
  O           1.32405547051042      1.53980264357183     -0.33122930588977
  H           1.03193521129702      0.42286135363996      1.37789747996556
  H          -1.06879620302305      2.20694058680866      0.05641766365371
  H          -2.66175135216300      1.21127174251645      1.64683396101765
  H          -1.34718521599042      0.16938059929975      2.35695914133855
  F           1.91642987862120     -1.75416720996910      0.87262971219927
  F           0.06853326975937     -1.69827537112491      1.95789553930499
  F           0.35921207466119     -3.15331637414613      0.40967289328209
  F          -1.53502071564440      0.85244482485725     -2.17960772878673
  F          -1.16882165376785     -1.17254616795611     -2.85656251511893
  H          -2.89552345413125     -0.59940149071979     -2.02324609305510
  C           2.69505019855535      1.18657862573823     -0.33537011313945
  H           3.16382446842623      1.42386761985727      0.62358978379910
  H           3.15514861336242      1.77794893722154     -1.12391041898920
  H           2.83637317042925      0.12421093495860     -0.54723653260615
