24
Coordinates from ORCA-job NEB_product E -53.463659931070
  C           2.58358925371192      1.44444965561338      0.02055807040245
  C           1.33353675401574      2.06604564071966     -0.57252753845131
  C           2.23462388085446      0.36544452226078      1.03866089656237
  H           3.17849869462197      0.96779999439260     -0.76441247598445
  C           1.38540005111294      2.37858437733002     -2.08776355647503
  C           3.45384742642065      2.56892724701710      0.65889402402473
  C           2.77290478156847      3.21609090661357      1.83318519346674
  C           3.26382503610803      3.18278739204362      3.05763663649040
  O           0.35416932696937      2.34533343869624      0.05369183841383
  O           3.69730885312136      3.47548078864757     -0.39488471959437
  H           4.40385295736714      2.11312515756911      0.99049215791579
  H           1.85490083977812      3.73803709535989      1.60614150533954
  H           2.76095308814504      3.66178820786047      3.87895714523634
  H           4.17956900568290      2.66340002764332      3.29079827760716
  F           3.34445193382815     -0.13971319630558      1.60096418698673
  F           1.44925449131613      0.76089807487711      2.03551032925799
  F           1.61347397693936     -0.66385523900842      0.44085231457598
  F           1.53709321293199      3.70456344534509     -2.27408515903510
  F           2.40955026794972      1.76625697660657     -2.71565141416850
  H           0.44408212595974      2.07103134563662     -2.57386148705111
  C           4.67700396458385      4.44252291791756     -0.10068857078254
  H           4.77256081723982      5.04972587754380     -0.99735453672253
  H           5.63779301400166      3.96769469999235      0.13031476382486
  H           4.37825624577148      5.07258064562757      0.74307211816004
