19
Coordinates from ORCA-job NEB_product E -34.140405037610
  C           3.04128099349570      1.41269375145865     -0.43553624638208
  C           2.14179174608363      1.58222805882761     -1.67021254274487
  C           2.53478788276551      0.31444311264357      0.35700696180162
  H           4.04376653977549      1.13883053928056     -0.78983491324470
  O           2.05855351844753      0.43928468491086     -2.33709603751470
  C           3.08743201371381      2.72273671857423      0.35995508442861
  C           1.81703081199538      3.01761902455752      1.07665892389620
  C           1.16652465754657      4.15918608204282      0.94930727908769
  O           1.60758136761805      2.60918276823927     -1.98136228022950
  Br          4.56643260545235      2.60271838789486      1.67938330834638
  H           3.36147442675774      3.54312648320995     -0.30668484561885
  H           1.46030165625832      2.23391401543391      1.73223006592004
  H           1.51762904850981      4.94364951582047      0.29975159045476
  H           0.24905631190080      4.34522201948616      1.47905969293357
  N           2.11813533253390     -0.53619473665805      0.99424152766098
  C           1.24371367744794      0.44221548895277     -3.50536928413021
  H           1.22556471942171     -0.58422907257982     -3.86062325381589
  H           1.67144861473521      1.10408554704705     -4.26058368437562
  H           0.23689407554054      0.78508761085761     -3.26169134647345
