18
Coordinates from ORCA-job NEB_product E -40.960733579050
  C           1.52051402868526     -1.69513780799180     -0.37977983753367
  C           0.89848618097601     -0.93719991455553      0.76175964608346
  C           1.20751595532800     -1.01992037116557     -1.70310466540098
  H           2.61223988373516     -1.66494895245208     -0.23558567639551
  F           1.31506179185632     -1.44978305022444      1.94651722646818
  C           1.17884566724311     -3.21680763451873     -0.28492883241319
  C          -0.18893484421560     -3.56452630807276     -0.80199182551096
  C          -1.24963900949989     -3.67450027834685     -0.02403725360091
  O           0.15893725565266     -0.02229187223566      0.74600165699132
  O           2.21135993043671     -3.87279394833893     -0.98050753578895
  H           1.23500856225859     -3.48043682222803      0.78496191691009
  H          -0.24940809617332     -3.75462373432718     -1.86543797277942
  H          -1.19860750837300     -3.49739233655928      1.03817104982480
  H          -2.21495183158640     -3.92909927374638     -0.42304339110836
  Br          2.07460330865666      0.74186870670441     -1.72315335382857
  Br          1.90314545811638     -2.01258751771632     -3.21099539152281
  Br         -0.68878589165740     -0.72836253743280     -2.01372550487053
  H           1.95050915856075     -4.77735634679208     -1.18262025552400
