18
Coordinates from ORCA-job NEB_reactant E -40.962104256390
  C           1.57468172034049      0.11358703514956      0.04795130323295
  C           0.92269919626295     -0.95773747605924      0.51714392181623
  C           1.95499069472548      0.16075811551271     -1.37084596518456
  H           1.82823940887111      0.93037964349646      0.70059320620717
  F           0.56199786588064     -1.02211134867395      1.80395203455497
  C           0.13057197748638     -5.22318962437114     -0.88683223226560
  C          -0.43289212304018     -4.02403387103911     -0.79824114482072
  C          -0.15298592754298     -3.07567185318999      0.31592435287691
  O           0.60350156370195     -1.98378224429652     -0.23838314966379
  O          -0.06419974238795     -6.11673582100092     -1.86785372313456
  H           0.80028221991012     -5.60815019782452     -0.13017939561048
  H          -1.08705212850061     -3.65674385566270     -1.57639722679014
  H           0.43363299361305     -3.55412017064169      1.10669522808856
  H          -1.08063017439894     -2.67657972829085      0.74292630728228
  Br          2.82863718505836      1.83102630823847     -1.81452175276130
  Br          3.18073236277422     -1.31851530834884     -1.85309067563967
  Br          0.39099595962491     -0.03388557279352     -2.55595142452142
  H          -0.64100305237900     -5.74939403020422     -2.55118966366681
