22
Coordinates from ORCA-job NEB_reactant E -41.690599502830
  C           2.05240537028802     -0.39935910307867     -0.32773488023991
  C           1.92153157361064     -1.09984661087903      0.80087093830746
  O           1.97137033178424     -0.91908236163858     -1.61011335975468
  H           2.19533954001242      0.66591784486549     -0.23311879833820
  O           1.95891540761167     -0.39355109652938      1.97008300210390
  C           3.90371822639288     -3.32760588559139     -1.71962328389724
  C           3.46328806480366     -3.27096706091684     -0.47503965787923
  C           2.01318875755381     -3.30038278706814     -0.10007838469367
  O           1.72725205696072     -2.43919513484941      0.98242334551027
  C           5.35204171042379     -3.28259351260831     -2.09701279510094
  H           3.23143219988065     -3.37716824258922     -2.56294591829410
  H           4.15522254879451     -3.19432134619621      0.35327349057768
  H           1.75123194578034     -4.29597151752423      0.27636296281883
  H           1.38669002672374     -3.06194253772927     -0.96458283436329
  H           2.53032698392647     -0.39001800846936     -2.18856528089042
  C           1.74239936186108     -1.11915433164403      3.16354494737197
  H           1.78952407148625     -0.37956309306201      3.96026061978559
  H           2.51498461794268     -1.87737665011737      3.31620523638798
  H           0.76305476128161     -1.60388603772447      3.16277832718629
  F           5.60303378796933     -2.19297720702451     -2.87670626176676
  F           6.16667025765337     -3.17000352084413     -1.02264889639213
  H           5.67617839725812     -4.16815179878090     -2.67083251843939
