22
Coordinates from ORCA-job NEB_product E -41.728179743480
  C           3.54431063500781     -1.02808773278976     -0.19734027901688
  C           2.44500974572418     -1.11152791049397      0.85696333143070
  O           3.19249567332896     -0.08560236103961     -1.15651257338673
  H           4.48674247854647     -0.72092449560080      0.27470199746144
  O           2.78484298717629     -1.84809187908606      1.90484771750369
  C           3.73533279902591     -2.46159275622000     -0.77979213153671
  C           2.51047700141209     -2.89139732817590     -1.53132256861516
  C           1.72601377857864     -3.88122088490094     -1.15108191050718
  O           1.37919372999656     -0.57057231032509      0.70644696224146
  C           4.96563050688172     -2.52009259490493     -1.68922957134062
  H           3.93351668687036     -3.13463232574207      0.06044902108429
  H           2.29436960124787     -2.30814788497643     -2.41537205200506
  H           1.93397158741771     -4.46601974959023     -0.26926788041798
  H           0.84359551351746     -4.14860581453937     -1.70541427200829
  H           2.24036761542066      0.08592512287817     -1.06940194795362
  C           1.79180818444777     -1.99711240840242      2.91657582356461
  H           2.24086204088253     -2.61015648448873      3.69306693326388
  H           0.90524665022400     -2.48224009099995      2.50426867797089
  H           1.50787192098727     -1.02076970679225      3.31252207256734
  F           4.88453874556980     -1.67969558118708     -2.73749103811543
  F           6.08168463604742     -2.17303419414945     -0.99908782034813
  H           5.12681748168851     -3.53570062847311     -2.08852849183653
