19
Coordinates from ORCA-job NEB E -25.339518929210
  C           1.09437566395168     -0.41949958967089     -0.37729529929207
  C           0.65843798102875     -0.01331225309972     -1.64315390117770
  C           0.66039787871307     -1.75257915527034      0.16949598085394
  H           2.11138280523740     -0.15017808280664     -0.10966039805926
  H           1.24502054005570      0.76152375795585     -2.16013828344032
  C           0.04272465397955      0.86949641821610      0.70725163562402
  C          -1.26266469192914      0.56843364212480      0.27163702527512
  C          -1.63589191968992      0.82383401475634     -1.04300632931831
  O          -0.53731358784461     -0.21576442973389     -2.02748784920989
  N           0.44704013102488      0.57513616764757      2.01196286605514
  H           0.50944204296797      1.76177770209585      0.30445219268348
  H          -1.80038649827089     -0.19135691436054      0.82349683281578
  H          -1.31386281654945      1.74779856770724     -1.50363776360991
  H          -2.59752056004871      0.47243778471365     -1.38351343074174
  H           0.68224441886772     -1.75496324364702      1.25626384725619
  H           1.34949390945264     -2.51896036358061     -0.18610033451470
  H          -0.33706136903932     -1.99808918634248     -0.18372005095868
  H          -0.25751500969923      0.12849812091031      2.57789234066693
  H           0.94165642779193      1.30576704238441      2.49526091909197
