21
Coordinates from ORCA-job NEB_product E -52.596132862470
  C           2.84158240809412     -1.03971116401422     -0.91505143359239
  C           2.44025520448364     -1.90242667292383      0.32143796366971
  C           1.75878381764281      0.03198631578336     -1.04783961942546
  H           3.78198187908252     -0.50403922528383     -0.73456342389669
  O           2.81324323331326     -1.43281727342958      1.49926517139503
  C           2.93351243628154     -1.94197252525242     -2.16397476471118
  C           2.51916470333301     -1.26348528787443     -3.44261376647072
  C           1.47172592341731     -1.64689884420801     -4.14743361943172
  O           1.81266662162438     -2.90789628167296      0.19526943143585
  C           4.34560522992688     -2.49961899624584     -2.32064265537834
  H           2.26032165278036     -2.79506257294299     -1.98595494458124
  H           3.13759789223514     -0.43830827679125     -3.76866589823392
  H           0.83892160909798     -2.46153013148687     -3.83623869295332
  H           1.20316105323247     -1.14903660325645     -5.06189912547265
  F           2.05936776848528      0.96984405012711     -1.95217900010777
  F           0.56523353574105     -0.46070183749311     -1.36473052352583
  F           1.61936523093065      0.68833372391035      0.12066251274136
  H           3.26193373713780     -0.57565656653338      1.49419061145029
  Br          4.39274918542830     -3.76244600134630     -3.79929987711176
  Br          5.64822553820112     -1.08562986835879     -2.69401658977271
  Br          4.95910133953038     -3.42972596070655     -0.70552175602654
