22
Coordinates from ORCA-job NEB E -53.876069169470
  C           0.44202539701471     -0.63250905896730      0.62736751469386
  C          -0.96076171912422     -0.67629721900766      0.71236002182705
  C           1.19267918043547      0.18364875023946      1.63804557603685
  H           0.96132701752931     -1.56600512120801      0.43638931689651
  C          -1.60554615491347     -1.95632124436424      0.14687568750543
  C           0.67372278075896      0.42605331992539     -1.14829932812590
  C          -0.12148964559125      1.54471448911462     -0.79927412196770
  C          -1.48571791882125      1.44704417884070     -0.68096106423452
  O          -1.67905884665691      0.33254678727627      0.87641864306066
  N           1.99906929736334      0.57768442761325     -1.39760318274679
  H           0.21083267649624     -0.35514074094008     -1.74058476903774
  H           0.38322322047769      2.40210949139386     -0.37768605303039
  H          -2.03672708080846      0.73775711176963     -1.27906538265926
  H          -2.04920231280168      2.29449107212642     -0.32932732478111
  F           2.49266001325037      0.33183012561193      1.29439192094043
  F           0.73050080458006      1.41202431641609      1.85915574513172
  F           1.21235479443659     -0.43722285697251      2.83161595736739
  F          -2.91085981398966     -2.02187934965165      0.38039744329422
  F          -1.44555408605920     -2.03374775426940     -1.19759454276185
  F          -1.04340165623892     -3.06834360339231      0.64302452353171
  H           2.49333905460206      1.29980909629012     -0.89586638076405
  H           2.54658499806022     -0.24224621784458     -1.59978020017650
