27
Coordinates from ORCA-job P E -42.975093807680
  C          -1.50181807623746      0.52090851929054     -2.23936675514095
  C          -0.21073267455625     -1.91333645476062     -1.88819597178479
  C          -1.59819424585924     -1.89125469017199     -2.43958044892152
  C          -2.21461903507789     -0.73836745631232     -2.64252429586941
  C          -0.96019585080464      0.30662433321217     -0.81842712736640
  C          -0.00380572913607     -0.90749921108691     -0.73162724148302
  H          -2.06217294769866     -2.83173190987089     -2.69163274585951
  H          -3.20965328650507     -0.66881282211248     -3.04867455190302
  C          -2.40612299515905      1.74002212156791     -2.32832794925060
  H           0.05591839779362     -2.91096830162305     -1.54216090816411
  H          -0.66047124601223      0.70262789352342     -2.91850535917580
  H           0.48162985825295     -1.66274930193224     -2.69525447453688
  H          -1.81047997187015      0.14086122166808     -0.15625587469684
  H          -0.24350560199979     -1.43766751865850      0.19554688608474
  H          -0.44139591422888      1.20108601011031     -0.47399109704662
  N           1.41023014356266     -0.57337546104751     -0.62905469319747
  Cl         -3.82896441180786      1.57860507334266     -1.27869525593510
  Cl         -1.53355994165086      3.21946254633916     -1.86014928728296
  Cl         -2.97606199602803      1.96500663828228     -4.00411542827024
  C           1.80622993869283     -0.16504118421640      0.70149244193859
  C           1.91571405939022      0.35117504241166     -1.62176645193493
  H           1.38071227152720      0.80268464467241      1.00865698138543
  H           2.89218139928372     -0.08297714353422      0.73160697132620
  H           1.49931716856067     -0.92288238482489      1.42043417519863
  H           1.56972201089415      1.38562752373566     -1.47704229905145
  H           1.63276176921144      0.02637641902948     -2.62015418467826
  H           3.00429690746267      0.35007585296625     -1.56496505438369
