27
Coordinates from ORCA-job R E -42.895478824080
  C          -1.52094057682858     -0.01149046234483     -3.15229952550315
  C           0.34040080927253     -2.37322247241003     -2.97241567906173
  C          -0.69752197074855     -2.12804969886758     -2.17865149946394
  C          -1.52164700337244     -0.93569324430825     -2.19086243936831
  C          -0.79249158650440      1.87050305760934      0.37206553453439
  C          -0.38464176324358      0.61451361292405      0.52075805657182
  H          -0.97201063806197     -2.85934858972939     -1.43040537706998
  H          -2.18908823182824     -0.82060987254602     -1.34937403540759
  C          -2.36797947526999      1.20098071970113     -3.18121800837864
  H           0.90080787384150     -3.28908178870764     -2.89537021282155
  H          -0.88281504338163     -0.09928283706415     -4.01946666092119
  H           0.67424381338935     -1.67352756294349     -3.71889652883527
  H          -1.60951868757806      2.24555004511307      0.96024679508281
  H          -0.86402719229034     -0.01795096707470      1.25792954333514
  H          -0.35719901830338      2.55569096830842     -0.33111621832589
  N           0.57311533100404     -0.05395408089383     -0.21429032356034
  Cl         -3.41465934916492      1.39750348925635     -1.77476658234791
  Cl         -1.32824031033507      2.65555271958939     -3.30932072709277
  Cl         -3.40755570466366      1.16303833951069     -4.64732719803324
  C           1.27313047159906     -1.13405935746394      0.43678247990204
  C           1.37739996302523      0.70147872812191     -1.14158368665435
  H           0.58276497899521     -1.69401734681580      1.06518533264387
  H           2.10224597566216     -0.77747349499172      1.06385662377447
  H           1.67838351586144     -1.80710289211145     -0.32077622739440
  H           2.06999629066909      1.38744479809930     -0.63638870500633
  H           0.72682419503038      1.27813988798632     -1.79576739757852
  H           1.95440333322482      0.00655830205288     -1.75083733301944
