27
Coordinates from ORCA-job TS E -42.881523839630
  C          -1.30441496662732      0.44605590273658     -1.14718843632360
  C          -0.03837078719774     -2.02315460914078     -0.39988158505243
  C          -1.36900265643043     -1.92062331525168     -0.61835740972455
  C          -2.00404972286020     -0.74580808282958     -1.06236189700913
  C          -0.77712369447545      0.83888917389573      0.82429500791246
  C           0.18959635802502     -0.04156960369652      1.26006846753686
  H          -2.00905251220730     -2.74556373671689     -0.33500833799571
  H          -3.08307190562322     -0.72157808231322     -1.07477849787598
  C          -2.01827902851248      1.66516739269592     -1.62717631531972
  H           0.37817720754837     -2.91506046650277      0.03721372745542
  H          -0.27464909448932      0.42503919233996     -1.47217209970798
  H           0.66494636291756     -1.33425142894912     -0.82690760054904
  H          -1.76331908428137      0.70626086121008      1.23323711938810
  H          -0.10144520351537     -0.89869810033190      1.84638964242950
  H          -0.50936909155007      1.85939038471030      0.61557053909969
  N           1.53626833816233      0.15077451910598      1.18584226129585
  Cl         -3.46557914141787      2.02897040373971     -0.67026785545067
  Cl         -0.96658970181925      3.10113648343181     -1.61218580291288
  Cl         -2.54403079941426      1.43913350529085     -3.33712377443343
  C           2.42489716174212     -0.89610029084850      1.61765210996141
  C           2.13459002049191      1.08531072852948      0.26690712204074
  H           1.94271772427267     -1.50665873485345      2.37732627820503
  H           3.32518493075289     -0.45200051707312      2.04625157916949
  H           2.72453891542041     -1.54436974224531      0.78496313740753
  H           1.44644416616155      1.89167691906999      0.03455932606789
  H           2.43066688475757      0.59565520688942     -0.66921522354793
  H           3.03031932016923      1.51197603710704      0.72234851793309
