19
Coordinates from ORCA-job NEB_product E -43.101610862620
  C           3.00345810789080     -1.47966482101985     -1.10048470649445
  C           1.81820083620051     -2.30431971411365     -0.62086260461824
  C           3.08520622849531     -0.15940269871485     -0.51287343387409
  H           3.90467136288322     -2.03240438465788     -0.79448014366284
  C           1.44018993017579     -2.12490065385561      0.85582770348466
  C           2.96308829852533     -1.37249989744554     -2.65030014055082
  C           1.83756110491998     -0.47623617234140     -3.10478990797120
  C           0.81645784065337     -0.90882330647442     -3.81746300087793
  O           1.19995355358551     -3.03820254788505     -1.32961138512592
  C           4.22559419972452     -0.85346568713782     -3.13083156494310
  H           2.82006883220155     -2.38077229686590     -3.05747195959922
  H           1.92056110517765      0.55796493861464     -2.79937803408112
  H           0.72595056976276     -1.93883400854688     -4.12085005184764
  H           0.02370553187553     -0.24743615086741     -4.12016610642013
  N           3.18161233313823      0.90780938780418     -0.11991830545695
  Cl          2.84648185937614     -1.86813203508921      1.90214573957772
  Cl          0.40072117223234     -0.66733457519424      0.86108629915594
  Cl          0.51608100834132     -3.51637412420752      1.42826791756163
  N           5.21953612484013     -0.43907125200158     -3.51024631425626
