19
Coordinates from ORCA-job NEB_reactant E -43.105207139180
  C           1.61055251197153     -0.13503913660287     -0.38161354140767
  C           1.36384052277543     -1.45285157296804     -0.29176143705139
  C           1.61233080317716      0.65087868744587     -1.54192077691368
  H           1.81104732890294      0.42188236004125      0.52202285030357
  C           1.40098719528780     -2.17264154946389      1.03934967049040
  C           3.19947160291939     -1.00065147344129     -3.87121022323613
  C           2.73195840911307     -1.85980477494537     -2.96926407167400
  C           1.28289831078552     -2.00798113792929     -2.62256267019400
  O           1.09750720940058     -2.34582392763294     -1.25448842730299
  C           4.56962570255066     -0.92747060161078     -4.19204458450602
  H           2.55531240417553     -0.30958207933003     -4.39851447707872
  H           3.39968578913872     -2.52996515209426     -2.44305445584527
  H           0.86748634120303     -2.87077688674832     -3.15719066622320
  H           0.70770419216708     -1.11632395038654     -2.89085667075832
  N           1.61515825506588      1.35409030229772     -2.44972239153007
  Cl          2.93994285400785     -3.08894405579650      1.10440231214065
  Cl          1.32932473624626     -1.09769350270746      2.43658651003795
  Cl          0.04927773931032     -3.32222834277499      1.14441032340939
  N           5.68268809180124     -0.86617320535227     -4.45786727266050
