23
Coordinates from ORCA-job NEB_reactant E -35.807953635080
  C           2.31917821510848     -0.56322144688918     -0.04351266311713
  C           1.56887409962442     -1.61644379457540     -0.35295324374640
  I           3.28646377250578      0.89378714968332     -1.23208935588847
  H           2.49929695971634     -0.36001934009043      0.99686197221724
  C           1.04468150330259     -2.47721728594368      0.77959441390054
  C           3.79270149565223     -2.63504802909616     -2.51264313580768
  C           2.94670646978440     -1.86239362918529     -3.17156769537445
  C           1.52345177184951     -1.60778429300851     -2.77713172020066
  O           1.14744181830366     -2.14121535268612     -1.52508454361178
  C           5.20799894586589     -2.87791236125990     -2.92573421972478
  H           3.50896928691913     -3.14260683118913     -1.60169199574321
  H           3.25331928232209     -1.36349932104804     -4.07963227504419
  H           0.86194459667033     -2.11430721312438     -3.49107912637108
  H           1.30283211272332     -0.53537725039304     -2.82942607767249
  C           1.92765813428100     -3.70828130794023      0.97918361375390
  H           0.03600902624084     -2.79712629252669      0.51481728838423
  H           0.99943336739682     -1.89892996483794      1.70161649457132
  H           1.94837133526305     -4.30724119110299      0.07197249159055
  H           1.53694645642031     -4.32158572990335      1.78721163628389
  H           2.94414867422854     -3.41197234949319      1.22997480724968
  F           5.48804405228804     -2.34399686154571     -4.15667438446644
  H           5.41636819413797     -3.95326698613131     -2.99104322932662
  H           5.90636042939523     -2.41744031771265     -2.21446905185599
