19
Coordinates from ORCA-job NEB_reactant E -38.546992745920
  C           1.73075682063123     -0.03043651876233      0.00972639048389
  C           1.19319455729057     -1.22526100915804      0.31662072059241
  C           1.93390871128359      0.39798861148726     -1.39912428449131
  H           2.02592193324579      0.65385154007060      0.78409270621688
  O           1.00222264998098     -1.64267098613040      1.59004350001494
  C          -1.26765772703542     -4.51603643478582     -1.77319139157084
  C          -0.04665966108413     -4.09346746439922     -1.47576132268926
  C           0.28570644179915     -3.34100571654879     -0.23135960724514
  O           0.81721937622067     -2.07520669836034     -0.62779405117088
  O          -1.62082271410665     -5.19502230134335     -2.88284737632276
  H          -2.11293605540812     -4.37274285335529     -1.11508969649550
  H           0.77523479639161     -4.24141656453828     -2.16209817121446
  H           1.04282647879434     -3.87356524566647      0.35967366596212
  H          -0.60430402172551     -3.19367254377185      0.38942580743702
  F           2.72019108469107     -0.46971769650433     -2.09896103726215
  F           0.76568415976369      0.45959435246980     -2.10071732244062
  H           2.40541534799607      1.39006165721454     -1.46956975790456
  H           1.29458461070825     -0.96684315633921      2.21158119076781
  H          -0.85968678943718     -5.28313097157847     -3.47154996266759
