19
Coordinates from ORCA-job NEB_product E -38.559584161410
  C           0.78840823423184     -1.58748394585406     -0.55847862431597
  C           2.27408456370085     -1.95742577045802     -0.39225408706708
  C           0.67896146858640     -0.27177798632027     -1.33474070384400
  H           0.35275062002480     -1.42127773767729      0.43357402558305
  O           3.00240200144820     -1.08761661684046      0.29973144768702
  C          -0.01012924667322     -2.72255848241254     -1.26627128451694
  C          -0.03427192789197     -3.94486961690684     -0.38363635427995
  C          -1.06749411206981     -4.29105478502567      0.35935913899736
  O           2.75136264967134     -2.95853290563892     -0.84126201092829
  O           0.49176169682116     -2.98411368435524     -2.54241558135741
  H          -1.03656246762174     -2.36586836435657     -1.42094499217621
  H           0.86914250224557     -4.53728456803904     -0.40134956719650
  H          -1.04999852392165     -5.17117907559244      0.97816084765112
  H          -1.97656937088043     -3.71175149120147      0.37765006834461
  F           0.93838759407215      0.77653605339216     -0.49482565130302
  F           1.59393389347220     -0.18138224729123     -2.31695268262043
  H          -0.31533992826920     -0.11085326561801     -1.77465627377430
  H           2.54261844648606     -0.26717242975954      0.53159795674354
  H           1.38815190656743     -3.34033308004454     -2.44668567162661
