16
Coordinates from ORCA-job NEB_product E -32.539247842460
  C           2.76595311954599     -1.38908098267729     -1.01680634860015
  C           1.27436731671967     -1.23743471898410     -0.85238180234672
  I           3.63397290963543      0.32535729700445     -0.01336016985527
  H           3.10015183104840     -2.25343147418891     -0.43511220844393
  H           0.96969699649637     -1.13916574422833      0.20503843868934
  C           3.18255869879372     -1.52787560025132     -2.48189065879384
  C           3.06633945028229     -0.25523740070444     -3.26863867263037
  C           2.12181824531559     -0.03568402233674     -4.16195700494390
  O           0.48808566193162     -1.21550224460399     -1.75041676623853
  N           4.59732851531976     -1.99674159835829     -2.51073842048453
  H           2.57188051340162     -2.32173742582103     -2.92912243443499
  H           3.82951960283341      0.48039025203401     -3.05232961615687
  H           1.35799557508775     -0.76355447833012     -4.37794912273312
  H           2.06629090104602      0.89621221698496     -4.69616561486340
  O           5.44141501678469     -1.21449579471998     -2.15693640528620
  O           4.78522564575767     -3.13341828081887     -2.86403319287753
