16
Coordinates from ORCA-job NEB_reactant E -32.538309723330
  C           2.04316548388995     -0.55196603947073     -0.25696161313336
  C           1.21987754060302     -1.10280383052409     -1.13849220007482
  I           3.62661958775466      0.82419884898701     -0.50531333539598
  H           1.92455172972043     -0.81225615247084      0.77924671315970
  H           0.47525179785908     -1.78928484628816     -0.74623245472979
  C           3.67493617080438     -1.95449166685930     -3.08400346380966
  C           3.26789659184633     -0.74477703474896     -3.45042616523391
  C           1.88237872386473     -0.22075926610701     -3.27512627202660
  O           1.04820313507230     -1.02673538480105     -2.47278411881569
  N           5.02430336287083     -2.38177638011803     -3.30704182117157
  H           3.06051365080326     -2.69807371022862     -2.59961881815249
  H           3.97149651951296     -0.07652837901105     -3.93087928444087
  H           1.39243128683030     -0.20682881997408     -4.25709326167532
  H           1.91218907641756      0.81205663595882     -2.90917571952262
  O           5.78073065061308     -1.62796404014064     -3.87835966461342
  O           5.31145469153713     -3.48840993420327     -2.90423852036360
