19
Coordinates from ORCA-job NEB E -43.726469276570
  C          -0.16501043985866     -1.23962926463342     -0.03615542703061
  C          -1.00913598936195     -0.48154738788087     -0.93846308499984
  O          -0.69694573413994     -1.73298186858009      1.09755747540149
  H           0.48722354234268     -1.97913353919156     -0.50410605953658
  N          -0.52275504546506     -0.35241515062281     -2.30714631785611
  C           0.93729256549376      0.11151165067945      0.42587755897306
  C           0.10562133497980      1.16653483645680      0.89496454629341
  C          -0.75801498135625      1.81960245244330      0.00990128557608
  O          -1.72312214441611      0.45752411120586     -0.47801489280775
  N           1.77243628452335     -0.51635711219295      1.46969291072183
  H           1.52494651310445      0.25383023271576     -0.47966257948635
  H          -0.10003903685419      1.17920430336507      1.95834508617261
  H          -0.41444529580113      2.09535311233177     -0.98134967680728
  H          -1.48590615957567      2.50348291301582      0.42238771019097
  H          -1.44572061104285     -1.19356352369359      1.39614689963648
  O          -0.88733647043925      0.62538303648098     -2.92237684022446
  O           0.22199868605021     -1.21943909599299     -2.71913424465775
  O           1.33471936059376     -0.52806287293464      2.58925075979083
  O           2.82419362122304     -0.96929683297189      1.10228489064998
