19
Coordinates from ORCA-job NEB_reactant E -43.758372106880
  C           0.93821601888286     -0.27468789978452     -0.50989435261532
  C           1.30772113880375      1.02460258235230     -0.48954667565085
  O           1.11589831614694     -1.11268981271140      0.49544325625606
  H           0.44342888637592     -0.69675283297477     -1.37330683865083
  N           1.02878630536134      1.86791496020244     -1.60996379501497
  C           4.80574516063870      2.92647531883459      2.18659213836075
  C           3.55177109870917      2.61327750892037      1.88362461775758
  C           3.04928379989566      2.32455598294578      0.51757323733343
  O           1.84190877314261      1.56983908342382      0.64613766948678
  N           5.18549914861534      3.21693067102903      3.53981908841999
  H           5.62279568806876      2.99729214052288      1.48521360390602
  H           2.81181727864559      2.57759567340558      2.67456339019845
  H           3.78760389467125      1.76981786910041     -0.07598742177827
  H           2.83658195071241      3.27509678739280      0.00594377352725
  H           1.54216894678308     -0.65891502755785      1.24227035105272
  O           1.23342363480180      3.05993318710294     -1.48221548264627
  O           0.61772439386670      1.33472344168860     -2.62090129303160
  O           4.33795944954535      3.14716076033225      4.40180042166661
  O           6.34696611633276      3.50682960577475      3.72223431142251
