31
Coordinates from ORCA-job R E -46.346040129040
  C          -1.45572000910756     -0.13104533260156     -3.13366449187336
  C          -0.31630977554677     -2.81821968393904     -2.36949588966174
  C          -1.39372165676306     -2.24784151769156     -1.83857242512243
  C          -1.88336038859330     -0.91592496892630     -2.13828111887357
  C          -0.99971365893687      1.47856634512582      0.20037867899095
  C          -0.28779911502949      0.38972458471423      0.42004767933623
  H          -1.96887119637173     -2.78995092753987     -1.09880030836472
  H          -2.66777197162815     -0.55467553176061     -1.49188359179830
  C          -1.98631672710710      1.24177491438898     -3.36158634424985
  H          -0.01176051557734     -3.80909168394808     -2.08561051361061
  H          -0.69402935907577     -0.41482755388841     -3.84087518475771
  H           0.30227554780348     -2.31716659705583     -3.09547184372289
  H          -2.06680712800682      1.50416475235177      0.35280238920623
  H          -0.78305971046740     -0.50473932461442      0.77177259802505
  H          -0.56092853543576      2.39535085346865     -0.15161379381375
  C           1.20892811180171      0.27385838756935      0.24475093821164
  F          -2.37209835258202      1.42588557686408     -4.63894478848786
  F          -3.04388283090465      1.54908113482081     -2.59877221893161
  F          -1.05753998518024      2.19110039375789     -3.12365783965594
  C           1.91190756305845      1.26027112923151      1.18491844090216
  C           1.65101775941298     -1.15148721846585      0.58344621215960
  C           1.59704935913898      0.58450361965907     -1.20416869718003
  H           1.62197141046969      1.07327724915571      2.21635361376939
  H           1.64494521399071      2.28328618993635      0.93512411809062
  H           2.99245990387843      1.15543512357338      1.10445038017460
  H           1.39907712906052     -1.39701073989680      1.61297488623389
  H           2.72722592678036     -1.25317817083694      0.46064844339687
  H           1.16120768880125     -1.86863936774416     -0.07261180551714
  H           1.23311711489558      1.56442853508417     -1.50283834947558
  H           1.16758758472420     -0.15967156633786     -1.87091448010708
  H           2.68051060249767      0.56642139554554     -1.31467469329304
