17
Coordinates from ORCA-job NEB E -33.709784546700
  C           0.55296122300697      1.18881780076553     -0.04028188043590
  C          -0.64090596782527      1.54644801563701      0.63678192935923
  C           0.51495656504967      1.15124683874060     -1.46768135035080
  H           1.47750207209359      1.61423731383870      0.34438464931204
  H          -0.55191528023048      2.02111956984183      1.61764103273255
  C           0.58459458195067     -0.65313430722149      0.38224312689949
  C          -0.63281876014837     -1.12975861523395     -0.13140531302195
  C          -1.82459161795350     -0.62663600183904      0.43497903604702
  O          -1.76497169457064      1.03338612419708      0.30276320920725
  N           1.81676287679574     -1.12683219139513     -0.25092519771920
  H           0.73235283739284     -0.57455010656659      1.45616635432197
  H          -0.62940162791535     -1.47536759608239     -1.15592882590496
  H          -1.92239665101627     -0.67752467427299      1.51522615026264
  H          -2.74598241994505     -0.86228218582978     -0.08136870134759
  N           0.46158915294469      1.16188299714001     -2.60914177399435
  O           1.74999825558953     -1.57354224806495     -1.36580094459211
  O           2.82226645478123     -1.01751073365445      0.41234849922468
