17
Coordinates from ORCA-job NEB_reactant E -33.759232653020
  C           2.19689409178990     -0.47529112311261      0.39057444406233
  C           1.64620966957915     -0.88891186282427      1.54073599566881
  C           2.20531055036054     -1.15210439676292     -0.83872297632764
  H           2.70148995334731      0.47985256332847      0.37630342577153
  H           1.71815119370528     -0.26725036508406      2.42467405409019
  C           3.09830050378582     -3.73296764805027      1.04831175053253
  C           1.91809700874353     -3.77162895974732      0.44329533478300
  C           0.72357777174872     -2.96576570080389      0.82935793957640
  O           0.96194481318795     -2.00232305631288      1.83452754903836
  N           4.18485215582598     -4.56084279898759      0.60923931269922
  H           3.35379188092253     -3.09956486177708      1.88431000350071
  H           1.77960979692455     -4.44139602332600     -0.39594082100577
  H          -0.03076370793461     -3.63918606913630      1.25407441064966
  H           0.29385006141177     -2.49755386915202     -0.06546685041721
  N           2.23814304232607     -1.67235243448705     -1.86239945871951
  O           3.97507029086354     -5.37367680940966     -0.26165885226677
  O           5.24937092341198     -4.38283658435456      1.16038473836415
