17
Coordinates from ORCA-job NEB_product E -33.751711886660
  C           2.79808201079775     -1.46214881870791      0.45943126008489
  C           2.02058799093426     -0.62387886250072      1.46406236316939
  C           2.36316741245795     -1.15602959319504     -0.88522052840418
  H           3.85564391907109     -1.15580618742836      0.54285233740016
  H           1.92353632410708      0.43349314698638      1.16577165581400
  C           2.70290266654720     -2.96254235178212      0.78621525579377
  C           1.52406621479885     -3.64238721594580      0.15674900148987
  C           0.47719903901537     -4.04998823073603      0.84808326771270
  O           1.57048205598944     -1.05088369517729      2.48330720904626
  N           3.97105406141297     -3.65435659314952      0.38578099447416
  H           2.64273540538008     -3.05436421590961      1.88065532990057
  H           1.57572487316493     -3.76762022621344     -0.91576284707597
  H           0.41494748457107     -3.92470397808555      1.91666674606240
  H          -0.36399327523871     -4.51747975660720      0.36851090752321
  N           2.01708674339241     -0.91217761481321     -1.94511425765155
  O           4.98939709226524     -3.00659441835389      0.42796883408879
  O           3.88327998133300     -4.81283138838069      0.08114247057155
