19
Coordinates from ORCA-job NEB_product E -37.171362952400
  C           2.71891456078808      1.26917347857156     -1.24464395849386
  C           1.66439100709407      0.44128692070854     -1.97475244834138
  N           2.74848710811716      0.99537271846625      0.17632207321323
  H           3.66977697666101      0.99971465856066     -1.75723498624076
  C           1.53857670603315     -0.90855025229680     -1.45074827767862
  C           2.44756152713363      2.75797248035944     -1.50944022733602
  C           1.32381322211395      3.29414488284826     -0.66361572757818
  C           0.50500745576412      4.24043458812543     -1.08032624538986
  O           1.03988936972524      0.82435632175653     -2.92803461032834
  N           3.66043547079293      3.57846641169515     -1.21024513602847
  H           2.22269819054926      2.91935563417288     -2.56957878633491
  H           1.25301640974321      2.85626899957542      0.32091963039072
  H           0.58723523261967      4.67940979082293     -2.06054973609144
  H          -0.28075897646792      4.61667052428874     -0.44929469754817
  H           3.55796362588037      1.44720291043116      0.59138522924656
  H           2.80125748142806      0.00203211648785      0.36964701678742
  N           1.46708024890969     -1.97829208513541     -1.05064694160998
  O           4.55994517878270      3.05340355233578     -0.59909618799573
  O           3.64390920433162      4.71757634822560     -1.59366598264220
