19
Coordinates from ORCA-job NEB E -46.342418993860
  C           0.34653257021725     -1.19398760506693     -0.27434355410800
  C          -0.87465268197434     -1.06075854839787     -1.01165853686712
  I          -0.40014752097227     -1.85191887659040      1.85747103965384
  H           1.04587696751025     -1.96999033263285     -0.55275592171752
  N          -1.70106573924111     -2.13691067125612     -1.32879910950620
  C           0.80233657490170      0.25521617654373     -0.15915800353706
  C          -0.59277984602023      0.88912664610084      0.03496096322266
  C          -0.83252193654757      2.27454146513199      0.22120420002408
  O          -1.39911160704001      0.17984347643108     -0.88953864553698
  C           1.90373332373861      0.65163598768864      0.81469936681677
  H           1.15169683779631      0.53409707214678     -1.16553483199250
  H          -0.93774900394734      0.39236912969592      1.03622414004880
  H          -1.83456269218533      2.64348334883991      0.12713604923302
  H          -0.04713422871195      2.93816244091448      0.52337176034744
  O          -2.78023122180629     -1.92240481281145     -1.84806518259411
  O          -1.22678181569601     -3.24267369639422     -1.07903973905283
  Br          1.31001003053476      1.19097998673255      2.59724192866870
  Br          3.21382962980149     -0.78661546296788      1.01513929684041
  Br          2.85272235964208      2.21580427589180      0.08144478005660
