21
Coordinates from ORCA-job NEB E -45.078746743810
  C          -0.02771923243132      0.41194541442996     -0.39440099811055
  C           0.02936500527360     -0.45002606340477      0.84102499045503
  O           1.24563912227527      0.86052890278866     -0.80157590141183
  H          -0.67271934728878      1.28147327520094     -0.17379378161481
  C           0.31459802189887      0.17950672679673      2.16965518100384
  C          -0.59640885246718     -0.42651463728225     -1.56434050316819
  C          -1.59611846383254     -1.39404270077681     -1.09035014349208
  C          -0.98488768723667     -2.38638399779141     -0.20010484247225
  O          -0.26740211705476     -1.73837757349159      0.91416587963025
  I          -1.33651926101639      0.90719716645592     -3.09343806449139
  H           0.26207320098538     -0.93730123009979     -2.01005391493200
  H          -2.60111424125488     -1.05811830478613     -0.89419474384029
  H          -0.22197667597352     -2.99162684891734     -0.70681347949223
  H          -1.70428268415969     -3.04401488136645      0.28912889382217
  C           1.63855740749853      2.14216232529998     -0.35904742096039
  H           0.87445572925534      2.89072713743291     -0.59182103370124
  H           2.54966677818693      2.36906228563290     -0.90880489774069
  H           1.85102658583061      2.16098759808522      0.71263628826839
  F          -0.21055338615454     -0.50894677954013      3.18340587633062
  F           1.63311894187716      0.29974117141187      2.43284907344090
  F          -0.17879884421144      1.43202101392157      2.24587354247674
