20
Coordinates from ORCA-job NEB E -49.220188598650
  C           0.89061050312239      0.07332547485460     -0.42336801903150
  C           0.05867712713542      1.06036497853082      0.16221518923511
  C           0.86967296307852     -0.02875487678599     -1.93675616036235
  H           1.92575992291748      0.09096701571686     -0.08202760829014
  C           0.52713919662142      1.73497250642454      1.43951643741957
  C           0.14830132720351     -1.45877107503086      0.38195393055283
  C          -1.21397498716898     -1.39720672558332      0.05879265306491
  C          -1.95353007763536     -0.25247434190914      0.49363023842890
  O          -1.22445180445467      1.04993797928696     -0.06295110833316
  Br          1.07772391908744     -3.05413461974939     -0.12772640312109
  H           0.45207835545720     -1.21093405619265      1.39309041558246
  H          -1.59172991248011     -1.99361647562771     -0.75612216459058
  H          -1.92526350250362     -0.05289077324576      1.56312651615611
  H          -2.95622706741814     -0.16901441696722      0.08919006644786
  Cl         -0.70744415305745     -0.35182907233765     -2.64976477269233
  Cl          1.40309972073632      1.58850580725232     -2.54155292480449
  Cl          2.04459613851849     -1.20212337336710     -2.56126193472794
  F           0.36753447070196      0.89789858575996      2.51424045439666
  F           1.84328515176527      2.02150298330350      1.39351443751134
  H          -0.03585729162708      2.65427447566722      1.65226075715784
