24
Coordinates from ORCA-job P E -39.805688663770
  C          -1.64952676019480      0.16836887597966     -2.18339868163498
  C          -0.24525098086245     -1.73918565539304     -0.78531352821947
  C          -1.69955049260842     -1.97360267797366     -1.05106008314484
  C          -2.37391208699059     -1.06766127750327     -1.73861548367579
  C          -0.90414718598219      0.73742694518519     -0.96477836935445
  C          -0.01401788894335     -0.30544962823995     -0.25974558411115
  H          -2.14955273003846     -2.88102524865415     -0.68204251996547
  H          -3.42477309034712     -1.14870313917934     -1.95758089541044
  N          -2.57916823797608      1.15990248465342     -2.69918117850759
  H           0.14269949424848     -2.46062228035822     -0.06791896224426
  H          -0.89758303441328     -0.11614345801559     -2.94809442322354
  H           0.30896041130912     -1.86087703681649     -1.72078831312578
  H          -1.65951542524005      1.10152206916633     -0.26809600254206
  H          -0.24409523143229     -0.30003728950367      0.81001432238773
  H          -0.30457061606778      1.59260172277212     -1.27909836350670
  C           1.46055649518620      0.07067610988242     -0.37556656650095
  C          -3.01388546657259      0.88420809809086     -4.05336939271951
  H          -2.14576510115164      2.07808852781906     -2.66850721431816
  H          -3.54412712726029     -0.06708256539012     -4.07252449436017
  H          -2.18269870207867      0.82580506137401     -4.77361407644569
  H          -3.69826240228733      1.66905704532662     -4.36960985617426
  Cl          1.76931147209485      1.64537378603518      0.40608168906309
  Cl          2.49811250803584     -1.12871325233707      0.43195757252786
  Cl          1.97602217957290      0.19080278307969     -2.07021959479341
