24
Coordinates from ORCA-job R E -39.726176580820
  C          -1.25369648608243     -0.28744072747873     -2.88909578945963
  C          -0.49454380499778     -2.88089391289238     -1.53380419589337
  C          -1.72704795037980     -2.41284230627909     -1.72267419313414
  C          -2.10421030118200     -1.14142468328216     -2.29306620774394
  C          -1.17367071274454      0.40070646859679      0.20615637513106
  C           0.12465857311059      0.17521067466444      0.28800278654731
  H          -2.56273843622917     -3.03018384524537     -1.41337974333783
  H          -3.15478300814453     -0.89733044110379     -2.23564243738305
  N          -1.54923072524901      0.96188724746632     -3.36014593502404
  H          -0.32529345747001     -3.85236004814046     -1.10274118416405
  H          -0.20871990543870     -0.54338959209702     -2.98262417559662
  H           0.38448887579366     -2.32225077576095     -1.80366577445428
  H          -1.87602849865453     -0.29552628768621      0.62710065071921
  H           0.51638561870853     -0.70845094371659      0.77047204591832
  H          -1.57584213074415      1.27488817672666     -0.27425902093447
  C           1.18523291319917      1.05844013465091     -0.26238390653581
  C          -2.90415146135467      1.43822440606052     -3.46850231989575
  H          -0.90238906290279      1.34219196511754     -4.03206418141288
  H          -3.38708076756452      1.38282513126138     -2.49236196029883
  H          -3.50068040462925      0.85613148948159     -4.18203527685970
  H          -2.88939362710113      2.47811509988740     -3.78850262566660
  Cl          0.56972110622033      2.47327795468651     -1.11807117537983
  Cl          2.23659681216564      1.63005822690042      1.07463037383334
  Cl          2.20934684167109      0.12888658818227     -1.39449212897443
