24
Coordinates from ORCA-job NEB_reactant E -45.036808337660
  C           2.39203923779529      0.01577526424601      0.58852563583446
  C           2.62830518637454      1.27444536636569      0.94781240915464
  C           1.05502185973587     -0.65010248994194      0.69636701747432
  H           3.21353762426266     -0.58608254862203      0.22944572019246
  O           3.85125283591731      1.88242573768385      0.86510188684875
  C           3.26102383001876      5.10448292266744      0.36174484217065
  C           2.33638133437903      4.16128775286852      0.42885040738862
  C           1.97620176218081      3.42405719766428      1.68077404467246
  O           1.64098448172414      2.07596737701630      1.43171250153845
  C           3.59285950208373      5.82942471794374     -0.90135338575692
  H           3.84392551921625      5.42337069716956      1.21202007458783
  H           1.78535112066514      3.86127181129750     -0.45315139462825
  H           1.06250574391345      3.85463693863688      2.10489479724077
  H           2.78473330953334      3.49736253682230      2.41711641417832
  C           1.06709580630170     -1.75942968146089      1.74830597189616
  H           0.78785251560619     -1.08233849434640     -0.27196752947107
  H           0.30726565007536      0.09739445969469      0.95900784478107
  H           1.81111554940873     -2.51311048688909      1.49921101377096
  H           0.09372800860316     -2.24083475604155      1.80374997202157
  H           1.30696277491207     -1.34835021075470      2.72588863316561
  H           4.49409877839377      1.25926014150088      0.51149564761761
  F           2.89756594823095      5.40495604356667     -1.96458499375070
  F           3.35872137099750      7.15257146739503     -0.79814241221752
  F           4.89387024967025      5.71035823551726     -1.22362511871026
