18
Coordinates from ORCA-job NEB E -29.751106139070
  C           0.15240575453922     -1.36108237626874      0.25009897630456
  C          -1.09915720706561     -1.48697309742078     -0.35135782259895
  C           0.18812075189919     -1.11189553860444      1.64679968386546
  H           0.96944778936446     -1.97770418400390     -0.10788216842552
  I          -1.11104038773530     -2.47429571440154     -2.29213059817037
  C           0.60246032739112      0.51683525700352     -0.40389879475367
  C          -0.52834056253811      1.19018586704299      0.04436100227515
  C          -1.78532462655634      0.89139856836826     -0.51783964587936
  O          -2.07468417822909     -0.74647433706297     -0.08503382301531
  C           1.95074723482366      0.80559469821500      0.18402246162976
  H           0.62943007448981      0.23045371404896     -1.45193768606978
  H          -0.50114258657782      1.63253525083561      1.03050741857065
  H          -1.84245462408181      0.76143718372254     -1.59424345051655
  H          -2.65873084124853      1.36334345528455     -0.09056954036826
  N           0.22307651082607     -0.91191491895402      2.77329553040251
  H           2.65966302227547      0.01053106181115     -0.03412344955179
  H           1.89102133106708      0.94421182888978      1.26078326185712
  H           2.33450221735652      1.72381328149402     -0.26085135555566
