18
Coordinates from ORCA-job NEB_product E -29.790018660570
  C           3.04806906769630      1.11928338183523     -0.83451853306947
  C           1.84118866051178      0.50246441211329     -1.48719576715180
  C           2.97555489862241      0.87430873587921      0.59100658101078
  H           3.94429696054920      0.60654516606859     -1.20907954015830
  I           1.83183138053165     -1.66564018402835     -1.29662250226066
  C           3.14633143282945      2.63744862656072     -1.12976583143313
  C           2.01422234530756      3.38263462570185     -0.48275200970582
  C           1.14013899284097      4.11508499505948     -1.14453981518868
  O           0.96550841275246      1.04342376455719     -2.05924736921331
  C           4.48981625567569      3.16625721622318     -0.62441346554859
  H           3.08795671905214      2.76730730020002     -2.21577998106675
  H           1.96295092384490      3.29516737885913      0.59491374189795
  H           1.17404860515208      4.20948168201414     -2.21741560961483
  H           0.34930498983535      4.64478141060706     -0.64295410223068
  N           2.91527344686120      0.70687326120270      1.71840186595629
  H           5.31801630784505      2.65723844760357     -1.11397209006970
  H           4.57791219186555      3.02219796415127      0.45068888223874
  H           4.56647840822626      4.22974181539174     -0.83625445439203
