14
Coordinates from ORCA-job NEB E -26.359661295730
  C           0.12074077400245     -0.78789063232190      1.20345039441483
  C          -1.12211515433041     -0.15281246825775      1.03854945145694
  Cl          1.38817495335839      0.08892383699675      2.04002975124220
  H           0.13046610949457     -1.83514969484500      1.48840376733862
  H          -1.98603913592671     -0.80022479384426      0.84790242333829
  C           0.69503150316566     -0.74669514740256     -0.60572983976997
  C           0.66228992379088      0.61875627883545     -0.91994328876611
  C          -0.59747526893580      1.25750495444524     -0.90515769437554
  O          -1.17033094818832      1.07146039160708      0.65659117386553
  Br          2.39369523639260     -1.62493328670309     -0.62496437261645
  H          -0.05115474674572     -1.40213084782231     -1.04149274768355
  H           1.54561071373832      1.20806746568879     -0.72151584383940
  H          -1.40831222172010      0.77154276793988     -1.43911829557386
  H          -0.60058173809582      2.33358117568368     -1.01700487903152
