18
Coordinates from ORCA-job NEB E -34.427766686090
  C           0.11170738370013     -1.32148804703611      0.51487878161015
  C          -0.96351479498677     -1.53227467531712     -0.37497308663837
  O          -0.14087611827460     -0.95985543613658      1.78882486298140
  H           1.00134485237557     -1.93706174053096      0.44607431108599
  H          -0.76011161470850     -2.04467492637845     -1.31924959437217
  C           0.67130753231722      0.35788134316428     -0.37463077441870
  C          -0.46418959513216      1.16283393553467     -0.21531944401352
  C          -1.62852489265615      0.83014278021176     -0.91739513598299
  O          -1.98612887924386     -0.77153406286957     -0.27187938769415
  C           1.93791128567280      0.74958053884188      0.34826481677017
  H           0.89442236175899     -0.03223094509656     -1.36158634440329
  H          -0.55276255134126      1.72671739603199      0.70337172090786
  H          -1.53913588098247      0.53181792010218     -1.95383346533109
  H          -2.53726499446518      1.36704976401292     -0.69014430170368
  H          -1.02971890836904     -0.56950141027066      1.82270566563331
  F           1.71654397981154      1.12442725138934      1.62518436046402
  F           2.82664015618816     -0.27414644368573      0.38839275280935
  H           2.44235067833559      1.59231675803271     -0.15868573770429
