18
Coordinates from ORCA-job NEB_reactant E -34.458999080490
  C           1.84204859535096      0.43540080312587      0.25622443789751
  C           1.37875033718954      0.71922420895314     -0.95689539509710
  O           2.04550024461324      1.33727171788200      1.27813606958060
  H           2.05664852121755     -0.59974035821578      0.48446352925849
  H           1.20956140747451     -0.09179303400383     -1.64910621094283
  C           3.45211887438288      3.84913736333619      0.23433848440376
  C           2.81664706714206      3.33753848443645     -0.80526585963374
  C           1.33843601396886      3.09353095149739     -0.84857606349729
  O           1.02078320591488      1.89985684641327     -1.53423440346919
  C           4.93163155471756      4.07177174354592      0.28422754911425
  H           2.93868137782601      4.11315752918938      1.14668319607230
  H           3.35533582339735      3.05465170249159     -1.69998373190326
  H           0.85721089789832      3.88332513159470     -1.43735368006310
  H           0.92009428430866      3.09075424782773      0.16278879765159
  H           2.69169139734052      0.98154983966683      1.89551238472557
  F           5.48669775101294      3.33839888336757      1.29187754011595
  F           5.55724884325899      3.68012772074049     -0.84978174703451
  H           5.20411380298516      5.12533621815111      0.46964510282102
