22
Coordinates from ORCA-job NEB E -56.100435305820
  C           0.47449682569641      0.79589955591127      0.38887069524129
  C          -0.22822214413916      0.18543089072037      1.45245162499625
  N          -0.24542927348712      1.93437855513057     -0.18335439270887
  H           1.51684510108990      1.04967691979671      0.55996244347240
  C           0.56115009223536     -0.37121126016787      2.62518089956311
  C           0.35245876428996     -0.46775017629117     -0.96129492301113
  C          -1.03949611151679     -0.58967043009034     -1.10991967504164
  C          -1.80790203749166     -1.00331200429475      0.04871667758973
  O          -1.46334221936091     -0.21805459280562      1.29580269132370
  C           1.16984541460087     -0.06209062946613     -2.16685519089886
  H           0.87080822406947     -1.25919120611121     -0.42406872250265
  H          -1.54421806022668     -0.12319677754690     -1.93836092731042
  H          -1.59304479699233     -2.02402428258385      0.37406277485000
  H          -2.87800434403297     -0.85351632191315     -0.06873469765639
  O           0.36761565121991      2.97370569197427     -0.22229722751949
  O          -1.39676260516680      1.76154146557427     -0.49659991353374
  F          -0.25034259840472     -0.89447112545077      3.55541782655045
  F           1.35588464269156     -1.39667076614529      2.18441159077838
  H           1.22061002117194      0.37005281095349      3.10142798570979
  Cl          1.23126394247072     -1.46100146306889     -3.28127244597557
  Cl          0.48414522039647      1.32339741747990     -3.03915963505135
  Cl          2.84164029088657      0.33007772839510     -1.69438745886499
