22
Coordinates from ORCA-job NEB_reactant E -56.133439019180
  C           2.06537215787142     -0.21251286036239     -0.87492832878789
  C           1.59152894209520     -1.38673668329226     -0.40921235812957
  N           1.61664695199442      0.53678058643069     -1.99507691963751
  H           2.89934616388318      0.25729559149941     -0.37655267601357
  C           2.17407721720048     -1.90805743128924      0.90818414045504
  C           1.51799335300051     -1.61082472063341     -4.31117678274835
  C           1.46149963013023     -2.31166358723134     -3.18948129971641
  C           0.30079109734567     -2.26321422664769     -2.24330813885296
  O           0.73187413065251     -2.26732613370458     -0.88719953852046
  C           2.63530941577008     -1.63771254621519     -5.29007223906676
  H           0.71181000096065     -0.94738382427330     -4.59565474573895
  H           2.26908504057190     -2.96871982653827     -2.89579158061053
  H          -0.28934697751715     -3.18145809076712     -2.32643643680684
  H          -0.33674516720664     -1.39540622294611     -2.44902267108649
  O           2.44153070207249      1.22335742045884     -2.55632231177554
  O           0.43689125733066      0.48931809886260     -2.29310906416129
  F           1.18384707714225     -2.21987514972031      1.76524121307441
  F           2.86735908613718     -3.04465154434433      0.67829209251825
  H           2.84475430684901     -1.18874608517390      1.40027834061398
  Cl          2.01927719083523     -2.25952483180242     -6.84985126804886
  Cl          3.23637416331183      0.02878194063030     -5.53616061919281
  Cl          3.99362425956891     -2.65371987293998     -4.78743880776688
