17
Coordinates from ORCA-job NEB E -30.366962388450
  C           1.06140883019293      0.10278208894915     -0.90926581841134
  C          -0.24598971599151     -0.35405733225264     -0.99389579330703
  H           1.84980049145109     -0.63037069672470     -0.84670464338338
  H           1.31747176833019      0.99027626840061     -1.47130254391405
  C          -1.33737575773723      0.57917931042572     -1.47944644274007
  C           1.10773736470188      0.61611098710800      0.97078695809462
  C           0.69304883541989     -0.55093370720284      1.58518983908429
  C          -0.63071023628662     -1.03190815422861      1.28603862836369
  O          -0.62751897277360     -1.37346177998232     -0.24774173170112
  H           2.13493117115426      0.92812536274624      1.09752345731636
  H           0.41019741821417      1.43827980413122      0.89667850323038
  H           1.43303838112598     -1.28338088616190      1.87539583658548
  H          -1.42260943322709     -0.29053847832061      1.38452693903959
  H          -0.90509732384002     -1.97837432913130      1.73922086249083
  F          -1.51693155487331      1.64395238731503     -0.63461960412093
  F          -1.01492255482021      1.12538532757454     -2.67626816887652
  H          -2.30647871104080      0.06893382735442     -1.57611627775080
