17
Coordinates from ORCA-job NEB_reactant E -30.389766003170
  C           1.70178115086897      0.20332567485473      0.13067289628607
  C           1.60008604689259      1.43195554131106      0.62650881184932
  H           2.16548593364318     -0.60422016517005      0.66475554696180
  H           1.31451226117271     -0.02550944092742     -0.84339537584719
  C           0.94235468902780      2.54255895040165     -0.16709655600276
  C           2.83178313788206      2.96046509617225      4.22146331786667
  C           3.06456148753991      1.68985089955087      3.95864737647008
  C           2.67134199339325      0.99212159319023      2.69086261638808
  O           2.02531613596258      1.89361906086129      1.81857607612813
  H           3.13748268488473      3.40920923173077      5.15034460314248
  H           2.32684227595194      3.59406435555754      3.51385917563662
  H           3.57144732180039      1.04563031958647      4.66447240844624
  H           1.99938186042935      0.15225009317347      2.92653884008540
  H           3.56915014095477      0.57923317581947      2.20519546591638
  F          -0.08169163106885      3.09827606665985      0.52321756357329
  F           1.81772474432645      3.54623978334387     -0.41846927672515
  H           0.54823976633817      2.18942976388397     -1.13185349017546
