17
Coordinates from ORCA-job NEB_product E -30.405329048750
  C           1.81557327296636      1.10952111871327      1.09694094817119
  C           0.72642479282959      1.87306652178196      0.41358105059850
  H           1.44887073850094      0.10703300653625      1.32296838829370
  H           2.67343779710210      1.03862362423657      0.42376083459748
  C           1.11389644973017      3.29565212625025     -0.06976555190109
  C           2.25942547492638      1.81086256136146      2.39706783279067
  C           3.28933617679976      0.98308084150392      3.09853189000013
  C           3.14285357591021      0.48734595294311      4.31208378165908
  O          -0.39536789507148      1.48461419100282      0.23947530094674
  H           2.68876489404272      2.78615199584852      2.15824403110068
  H           1.39465316392563      1.96169986843127      3.04516888264396
  H           4.19580531343740      0.80145960231328      2.53592834499932
  H           2.24779768921836      0.65512681208658      4.88843424460592
  H           3.91189019488471     -0.09826187087601      4.78556935176988
  F           0.93636017078290      4.18561026131209      0.93659226050001
  F           2.41892972727912      3.36839372208338     -0.42095131494129
  H           0.49924846273515      3.61601966447127     -0.92403027583488
