71
Coordinates from ORCA-job A2S E -102.049496926530
  Ru         -0.39682568929703      1.84289159989681     -0.28397651900952
  H          -0.18307319902052      0.32537842874038     -0.53325509871895
  N           0.64191959951717      1.57344321025869      1.50189104717531
  C           1.98843142679432      1.51442069707927      1.50012705950923
  C           0.00980285372328      1.53479414695150      2.68724786837318
  C           2.72571302183658      1.48832337313756      2.67629405157697
  C           0.69469101666726      1.50638067531962      3.89314707842720
  C           2.07823299591261      1.50443126421876      3.89802859321204
  H           3.80308170359308      1.45499639837291      2.62429420273085
  H           0.13658492709699      1.49592343849873      4.81637695999124
  H           2.63205846483755      1.50462035485582      4.82352405402850
  P           1.70059790359916      2.31799974028871     -1.09937777551829
  C           2.35249741047070      1.56095101455200     -2.71299565386009
  C           2.34325098595000      4.10823722989472     -0.93766260886792
  P          -2.19361396563944      1.52702043602490      1.02686275031532
  C          -3.51717718476053      2.80400598790209      1.16995168337474
  C          -3.27124866213498      0.03343460671703      0.98698499372052
  C           2.69022395183705      1.43395400326817      0.18400204455079
  H           2.68981325051618      0.37902927553032     -0.12342313022979
  H           3.72568161272260      1.77541781136598      0.25537799191143
  C          -1.49271095417837      1.53128021601682      2.72552285472671
  H          -1.85498749500149      0.67832765917526      3.31269467429518
  H          -1.86171717536929      2.45673131625847      3.19379071701106
  C          -1.29486267415260      2.07890743352039     -1.88076945090218
  O          -1.84638268340613      2.22512282488290     -2.88371352573569
  H          -0.58650483941686      3.33495396511214      0.09256910231594
  C           3.85419455632381      1.27312522492877     -2.72340505736144
  C           1.62486171822920      0.22909270129660     -2.89974231178325
  C           1.95312853320301      2.47730258468964     -3.87048192820587
  H           4.10988604567057      0.52039663703003     -1.98184794888898
  H           4.12239371083899      0.87611297216662     -3.70224458914461
  H           4.45655430177667      2.15699082327411     -2.55035981970314
  H           0.54777733801312      0.38198514776723     -2.93972354284841
  H           1.94590323256197     -0.23388260460792     -3.83233342720832
  H           1.85042997320377     -0.45586502932747     -2.08726841648832
  H           0.91281173136619      2.78549781218911     -3.75554530586914
  H           2.58387164172312      3.36048193620639     -3.92783876271290
  H           2.04574882989896      1.94216444877275     -4.81500753524978
  C           2.24618587129322      4.47170858051906      0.54769760581677
  C           3.78508054117033      4.34332360211615     -1.38362711952873
  C           1.39871995829668      5.02059129946071     -1.72169873365015
  H           3.00287769869000      3.96050061548102      1.14027446390694
  H           2.39349746239275      5.54387277789212      0.67203594995855
  H           1.26033308323225      4.22611272782697      0.94019780080636
  H           3.90177874599576      4.23761258650074     -2.45798916787181
  H           4.06616489460174      5.36411694597820     -1.12385222686653
  H           4.47765738303776      3.67300252453480     -0.87837156572658
  H           1.54927419139312      4.93491614970962     -2.79338654973064
  H           0.36382924843562      4.76472721581953     -1.49654567960253
  H           1.56443979230389      6.05981006153764     -1.44066175625063
  O          -4.31308578772253     -0.04633992923486      0.39559550260847
  H          -2.78850968857994     -0.85231983140462      1.45252567233271
  O          -3.57983895802396      3.58573027774211      2.07711518822531
  H          -4.22249423072885      2.81908837684889      0.31675155016412
  C           1.40341822327020     -2.17973675377648      0.12187800024897
  O           2.49497403053595     -1.70565228341548     -0.12547894421427
  C           0.82964747215085     -2.09441346829932      1.48805934979085
  C          -0.51231498404110     -2.34814517615593      1.76212164741627
  C          -0.98527246459515     -2.25257270830719      3.05848721201451
  C          -0.12872841664815     -1.91571142213852      4.09457752970418
  C           1.20803798411939     -1.66513690920434      3.83155195390150
  C           1.68084568165038     -1.74712392447863      2.53687235558465
  C           0.58420324302646     -2.86939615668277     -0.93136355164658
  H          -1.18904324853568     -2.61316802709210      0.96460271081149
  H          -2.02634286550466     -2.45584770100289      3.26878875030780
  H          -0.50275388291756     -1.85430845263472      5.10625033326282
  H           1.88035971450996     -1.41144802350860      4.63751800774155
  H           2.72094167952271     -1.55801439998406      2.31467575068185
  H           1.19919373334462     -3.05726003152172     -1.80807197524747
  H          -0.23231696266038     -2.20701465043618     -1.21849263157610
  H           0.16920264147760     -3.80308365491506     -0.56105275231322
