71
Coordinates from ORCA-job A3R E -102.017673097500
  Ru          2.11663350740429      3.27455409585079     -0.18206348744131
  H           0.75812334722755      2.10358201320795     -0.26133196994016
  N           2.46938886307612      2.17375480256839      1.58052778968875
  C           2.87829079981231      0.86551327532618      1.41945188785176
  C           2.14053206239162      2.62035129210675      2.79948382582156
  C           2.82696791403207     -0.01157090844088      2.54692768422442
  C           2.11895027105329      1.81102581301627      3.91553129959381
  C           2.45949398324299      0.45611142641126      3.77031214455651
  H           3.10355738828234     -1.04421364935222      2.39793547043145
  H           1.84789749515428      2.21368622647462      4.87740594500167
  H           2.42983239456899     -0.19862723702608      4.62841924133447
  P           3.58343494879258      1.69076557651428     -1.03455301287862
  C           3.26200021447510      0.91278410661550     -2.73087743118545
  C           5.42904845816124      2.16667722454065     -0.87508676160726
  P           1.01309714985408      4.61621734590898      1.33013719099679
  C           1.53584503312144      6.38711818225396      1.23017541389946
  C          -0.71263189745185      5.07191323955625      1.81349652558354
  C           3.29589802645028      0.43136427937438      0.16934196256648
  H           0.91319346414837     -0.09995160103453      0.39898179122239
  H           3.65698470742876     -0.57850754773997      0.04407367966161
  C           1.77614497748993      4.07600414058169      2.91143843612958
  H           1.13512717862131      4.27171032974994      3.77692092824330
  H           2.68956704574739      4.68301511628825      3.00280545740788
  C           1.79715912291662      4.19286872611541     -1.75080761104624
  O           1.63687338032107      4.79669902728584     -2.71873153395337
  H           3.27939644676043      4.21638781052599      0.08618408674010
  C           3.74115102512699     -0.53409097190478     -2.83067085686887
  C           1.74160369287338      0.92259429668061     -2.90935943333923
  C           3.87416279193235      1.77278390320368     -3.83403979468680
  H           3.20914390489806     -1.16251079984868     -2.12058350528864
  H           3.52972426907293     -0.90965171169443     -3.83156308482968
  H           4.80708794354376     -0.63020956504120     -2.65358138112505
  H           1.34903110558758      1.94117275071426     -2.86682941633446
  H           1.47860208258098      0.50608079237244     -3.88107927966394
  H           1.25504770222458      0.31728369419836     -2.14789848205888
  H           3.63612083541932      2.82284392647275     -3.66645752410527
  H           4.95286185643103      1.65472371804926     -3.88702474766304
  H           3.46076289872799      1.47995866996780     -4.79890160848524
  C           5.65155754652751      2.42307868569390      0.61744919169990
  C           6.36744732287854      1.04346604962104     -1.30981453682098
  C           5.72314127413557      3.45706112113142     -1.63746582422338
  H           5.50849029317466      1.51326051712563      1.19790174642238
  H           6.66684272400159      2.77885694763877      0.78507969578236
  H           4.95935399007813      3.18355108474982      0.97988454678000
  H           6.35790361852176      0.89857588402319     -2.38666120311902
  H           7.38735872310337      1.29526430655893     -1.01966565564118
  H           6.09987656996283      0.10923351580925     -0.81871213553491
  H           5.79822829417685      3.29253541565154     -2.70714106915801
  H           4.93475699670711      4.18734291729061     -1.44927844739927
  H           6.66823011499275      3.87714851104502     -1.29611257679091
  O          -1.43066339831418      5.73978142325310      1.12245791347833
  H          -1.03488730245825      4.68680706360544      2.80412682512808
  O           2.42690441048905      6.84131287982650      1.88624649462586
  H           0.96972772619128      6.97225754856767      0.48116136585954
  C          -0.16886329015405      1.43218206958271     -0.13856692907816
  O           0.20585974702225      0.08740779220612     -0.23668144933189
  C          -1.12029103254534      1.78866441237732     -1.25706024879472
  C          -1.32685573304760      3.12083479853523     -1.59182912971929
  C          -2.21890152744526      3.46010838228055     -2.59076003183284
  C          -2.91227851170517      2.46885616108930     -3.26626995408393
  C          -2.71082195964176      1.14073387661658     -2.93511111184833
  C          -1.82097687229900      0.79968381590726     -1.93152640934685
  C          -0.84241813770717      1.70677310264472      1.21134785528177
  H          -0.78287024851989      3.90464118269807     -1.07215120420350
  H          -2.36864710653114      4.49869742384094     -2.84346208316166
  H          -3.60565031600906      2.73360268087619     -4.05053795995444
  H          -3.24817772106509      0.36411838986742     -3.45896453426791
  H          -1.65557680309062     -0.23303833899544     -1.66836257422614
  H          -1.66833572298126      1.00601201425272      1.32795007461837
  H          -1.24448286281560      2.71852892522143      1.24171622255352
  H          -0.14877719713437      1.56232762955735      2.04080329785321
