71
Coordinates from ORCA-job A3S E -102.018946183370
  Ru          1.84674709687976      3.25301187026171     -0.25369635262429
  H           0.48501516424680      2.10815326332106     -0.35494359685016
  N           2.32986266146162      2.28231796828567      1.56601552128932
  C           2.82013305703841      1.00240694803745      1.46416469236456
  C           2.06938728445154      2.79330434051053      2.77591457199305
  C           2.98669419851752      0.22713224806691      2.64603286915424
  C           2.25652949941742      2.08470835169887      3.94424558492486
  C           2.72022846730068      0.76604491842715      3.86816731756761
  H           3.34787513697059     -0.78472221963575      2.54266964822773
  H           2.04215009725774      2.54377841873013      4.89504920783942
  H           2.86354981465322      0.19147362455438      4.77110736353272
  P           3.33378085901639      1.66304432025356     -1.08267703459948
  C           3.00485366605020      0.78728540274658     -2.73145687213334
  C           5.17486787474452      2.19543053631112     -1.00251395022969
  P           0.83651197177015      4.67814326692733      1.23326800988175
  C           1.81677249655060      6.23040931190676      0.89290975236623
  C          -0.58908094494335      5.75054526473579      1.72014389026057
  C           3.08996529163147      0.46828307847454      0.19748038257474
  H           1.13542725145926      0.03338710873868      0.13960717740373
  H           3.56382606654587     -0.50303402185649      0.13884217074726
  C           1.55363649894368      4.20517163049938      2.85104075452748
  H           0.82268793893807      4.30314325641516      3.66049479772469
  H           2.38637532275982      4.90254697862140      3.03640029081253
  C           1.39071309752509      4.07322313822990     -1.84328437021104
  O           1.12404061677164      4.62183757654306     -2.82038624665662
  H           3.02841426526294      4.20128216357912     -0.13603750922326
  C           3.49951058128122     -0.65763399986483     -2.74297286975735
  C           1.48566889653725      0.77079432613702     -2.91727951052987
  C           3.60291642861556      1.58735081921009     -3.88671956813453
  H           2.98016699303826     -1.24481051744102     -1.98932318153725
  H           3.28689278627159     -1.09912742484950     -3.71622476244775
  H           4.56759905883376     -0.72972381306030     -2.56765269084296
  H           1.08620736039067      1.78743921730485     -2.90428387692527
  H           1.23894312927708      0.32575785751436     -3.88095708477881
  H           1.00361030913580      0.17610546965485     -2.14510899620181
  H           3.34667244836601      2.64140723201944     -3.78349022848645
  H           4.68282873531738      1.48452207524867     -3.93611999612884
  H           3.19412985345109      1.22830974541241     -4.83097842323854
  C           5.43636845002212      2.54645898664907      0.46471370526741
  C           6.12957161837015      1.06840916790098     -1.39108650345519
  C           5.42200674052283      3.44418385783827     -1.84750536392073
  H           5.33191581382092      1.67206523606165      1.10474846755554
  H           6.44946481553242      2.92947022813691      0.57721349694825
  H           4.74358757261560      3.31648598453803      0.80670465463756
  H           6.09638400668816      0.85173973094824     -2.45509797603502
  H           7.15005169390600      1.36223910645839     -1.14626261180083
  H           5.89928409052978      0.16227642499015     -0.83293319682611
  H           5.49881160528352      3.21582597328356     -2.90503080709246
  H           4.61165372344722      4.15952464272401     -1.70032132336860
  H           6.35382201232303      3.91614781782697     -1.53915942922229
  O          -1.34585618892194      6.26027804599743      0.94725385316490
  H          -0.61474658464399      5.96083341642459      2.81052960055655
  O           2.64161876786137      6.67023590439380      1.64060907523991
  H           1.59322023044014      6.67674023126311     -0.09399093563462
  C          -0.32064578654715      1.34383513778803     -0.01315999819401
  O           0.18488137375755      0.04890992811827     -0.12738222850738
  C          -0.73628841361420      1.68414501616587      1.40637786299640
  C          -1.46293011139797      2.84296318165705      1.67616959642847
  C          -1.86375483817038      3.13287019772606      2.97025130178419
  C          -1.53166306632702      2.28200617607042      4.01148273103682
  C          -0.82350926864272      1.12358090763602      3.74707009171134
  C          -0.43856170142864      0.82128193683645      2.45259840967398
  C          -1.50282754584982      1.47104600258815     -0.97746527502984
  H          -1.77191264517878      3.49215347754948      0.86766980873348
  H          -2.45262380067862      4.01899256248276      3.15995367570938
  H          -1.83910282744355      2.51375167859340      5.02054597077878
  H          -0.57430778208808      0.44433103239952      4.54841667107420
  H           0.08940915309549     -0.09895810849720      2.25252834614892
  H          -2.32887161100625      0.87017837913818     -0.60303987697963
  H          -1.21652567262144      1.09329218293054     -1.95502915320972
  H          -1.82489515539305      2.50275582371179     -1.08011952182483
