71
Coordinates from ORCA-job TSA2S_3S E -102.012936883780
  Ru         -1.15355454140084      0.25632667519789     -0.49192133345377
  H          -0.59957314961549     -1.37917863250905     -0.59901852364043
  N          -0.10699358661472      0.32199398894936      1.34750911291266
  C           1.24734648743697      0.27867195591553      1.28169384515651
  C          -0.71206692061809      0.32211838317493      2.53866674497367
  C           2.01087039185175      0.25418290275706      2.46207056713207
  C          -0.00202852916922      0.30841707911086      3.72807542037135
  C           1.38721586866328      0.28056938592388      3.68455369611189
  H           3.08633664847953      0.21483547491554      2.38490293451769
  H          -0.52914315623600      0.31701833458012      4.66803742713213
  H           1.96126135021151      0.27422030382588      4.59857109434273
  P           0.89600803560094      1.00950971997060     -1.29273886867295
  C           1.60033920766750      0.40746358434103     -2.94549639452953
  C           1.25008546819632      2.87775518232831     -1.08767244928335
  P          -2.86520199592778     -0.20292701154427      0.94473326848128
  C          -4.02958508257361      1.21280392558451      0.59800055317599
  C          -4.33102700599582     -1.23602819784431      1.40301778167780
  C           1.86205122924738      0.16314531156942     -0.02111825875930
  H           1.65460267473474     -1.18580958501006     -0.29292276987309
  H           2.93819032081312      0.32281869333633     -0.03314402129126
  C          -2.21377002955283      0.33576445662340      2.57405631261849
  H          -2.58210432079500     -0.29278368321426      3.39149709890109
  H          -2.58180370251310      1.36374596926423      2.72384050745926
  C          -2.08299765082641      0.20074477174418     -2.08643387681619
  O          -2.70543034119525      0.22444291614958     -3.05468868523962
  H          -1.58956135000753      1.71903392734858     -0.31639910641490
  C           3.11343215856691      0.20051520617209     -2.90203279460580
  C           0.94574465309640     -0.94525760209444     -3.23191299363009
  C           1.19857035341274      1.36130196829520     -4.06995270638695
  H           3.36696723354587     -0.59367423304942     -2.20432512261205
  H           3.45616564520911     -0.10201429652974     -3.89096924587981
  H           3.65024405705334      1.10137000418783     -2.62364096608161
  H          -0.14128669301320     -0.85072676323587     -3.26541016192889
  H           1.28236671808190     -1.31663098328892     -4.19917320445834
  H           1.22804386792430     -1.67635103618658     -2.47755429933389
  H           0.13573998767874      1.59258372054061     -4.00142812137692
  H           1.76992852871420      2.28481415178709     -4.04987999767025
  H           1.37950322037872      0.88414746618900     -5.03270726322779
  C           1.01077109970981      3.21071832858146      0.38759549429754
  C           2.68787563678577      3.26415402972853     -1.42813250130833
  C           0.25087885986389      3.68078348195495     -1.92115235504766
  H           1.74374891839250      2.72825962357085      1.03179208973777
  H           1.09168681520291      4.28669961255981      0.53640031764719
  H           0.01022868842795      2.90460909768210      0.69429851540835
  H           2.89709686385574      3.17150530742033     -2.48966402998752
  H           2.85166503802736      4.30517684913932     -1.15026522099953
  H           3.39668287454226      2.65512742004027     -0.86947370431136
  H           0.51170395180083      3.69520246320201     -2.97368519484162
  H          -0.74758957193026      3.25513554649848     -1.81245474537441
  H           0.22208285580478      4.71135208156497     -1.57048809554387
  O          -5.05208436556850     -1.76396567427972      0.60827853826141
  H          -4.54695975830605     -1.22706974605101      2.49265204508885
  O          -4.19209352114374      2.13576712740187      1.34330332534629
  H          -4.51241181988793      1.14181269114276     -0.39435095650736
  C          -0.05737978829833     -2.45020584475060     -0.30354529612363
  O           1.25958642353456     -2.36277313119893     -0.52212577963893
  C          -0.43282323456566     -2.69603487374997      1.15019855720782
  C          -1.74861600329375     -2.93576632144882      1.53916453062489
  C          -2.05255112369166     -3.17135648146179      2.87023727774557
  C          -1.05275572058361     -3.16092430697493      3.82858863638370
  C           0.25943249744413     -2.94840684522214      3.44441990087029
  C           0.56671979118680     -2.72853011477757      2.11406829267496
  C          -0.71690541479483     -3.48775814410003     -1.22298258823639
  H          -2.53136848296696     -3.00672729522726      0.79521587647906
  H          -3.07362110106992     -3.38282372065541      3.15618139648663
  H          -1.29451505700418     -3.33805693390883      4.86647054495477
  H           1.04950041927625     -2.96252695653498      4.18088476115014
  H           1.59176994628284     -2.59261532229867      1.80220716290656
  H          -0.42223149473409     -4.48057774106361     -0.88727325345216
  H          -0.36217028910447     -3.34896420344701     -2.24068795890822
  H          -1.80023998370479     -3.41015343861255     -1.21436078278869
