23
Coordinates from ORCA-job NEB E -57.819768232000
  C           0.61026207853101      0.09162522561748      0.80905993408195
  C          -0.48155676269657     -0.68333330327293      1.24164865279810
  C           0.64112069328867      1.56115032515064      1.19608236080871
  H           1.59635652336018     -0.34509178688245      0.95421699692056
  C          -0.27638025415844     -2.17071387663370      1.46597240730594
  C           0.29520966832848      0.03375832379100     -1.07924517122225
  C          -1.01460581819848      0.50660317667299     -1.20036396849513
  C          -2.05540044341405     -0.23028440513305     -0.54230773004865
  O          -1.70046084307020     -0.27588039637673      0.99515784851642
  C           1.38216341880443      0.78588978888777     -1.81865322433376
  H           0.47181327518225     -1.03328564279701     -1.18993877312576
  H          -1.17728582326824      1.55027713760393     -1.42368685416407
  H          -2.10652357594446     -1.28844236011068     -0.79367014739918
  H          -3.03153593239347      0.24124141418241     -0.54946635157581
  F           1.74555491095019      2.16958766780076      0.71783011730754
  F          -0.41459899923473      2.27081584638899      0.75413083105524
  H           0.66764855407300      1.65586334163148      2.29564291474834
  F          -0.03149230009950     -2.81833849846632      0.28487029729377
  F           0.80862890523698     -2.39566808878441      2.23736548387710
  H          -1.15162998767337     -2.64579599383570      1.93044188237803
  F           1.42481913588538      0.35600836575001     -3.09610864800661
  F           2.60038145964380      0.56117239128201     -1.31351791163015
  F           1.19751211686714      2.10284134753350     -1.87546094709036
