23
Coordinates from ORCA-job NEB_product E -57.854665024070
  C           2.64723257978056      0.07650313564228     -1.58108634309714
  C           1.64934135933594     -0.70598768404147     -0.74940640602431
  C           2.85532519098756      1.47013093487708     -0.96072107171757
  H           3.62036735513379     -0.42952400648055     -1.50436236164388
  C           1.55874598319050     -2.21889056791083     -1.07371914246115
  C           2.22175614258109      0.03119712625003     -3.07357524338362
  C           0.84070949236744      0.56978491394001     -3.35099596183565
  C          -0.08152377391009     -0.13042355839065     -3.98260405138070
  O           0.97565516605227     -0.24168154363902      0.12206035560758
  C           3.23327809739549      0.76404390908631     -3.96458367575900
  H           2.27249690654494     -1.01296957798141     -3.40587218679011
  H           0.65386431393731      1.58502325195878     -3.03831163732816
  H           0.08627618873278     -1.14162740224661     -4.31361455511111
  H          -1.05129889523077      0.28660005152882     -4.18711288340314
  F           4.06420961719906      1.95808775574643     -1.31163143344391
  F           1.94189168899299      2.37732758609437     -1.34900570155730
  H           2.82134169924599      1.41610072263165      0.13988255387416
  F           0.64250900937145     -2.43868247682617     -2.04086074522144
  F           2.73570566142049     -2.69014638439099     -1.54238279190454
  H           1.27022497860663     -2.79823192625855     -0.18383634325089
  F           3.01600319822829      0.45081583490181     -5.25121821472212
  F           4.49598381942214      0.39752765411004     -3.69526914603431
  F           3.17720422061417      2.09002225139864     -3.88097301341170
