15
Coordinates from ORCA-job NEB_reactant E -27.339798889970
  C           1.34106273811291     -0.04670268857099      0.12790078561305
  C           1.33134260405756     -0.55064628529337      1.36492442770332
  H           0.98811785144596     -0.58327447022945     -0.73378974716298
  H           1.71258950059750      0.94766499966722     -0.03709847663196
  C           1.82924327258212      0.25537277775577      2.43300542789789
  C           1.63943003542013     -4.67502970943417      0.10841530772760
  C           1.46498918106377     -3.36493678301447      0.07967154560157
  C           0.37631744301014     -2.67495555278993      0.84976205375733
  O           0.88820919192936     -1.75848583344630      1.79735367441646
  Cl          2.88224968656740     -5.46780612885090     -0.76836666563364
  H           1.00607371871893     -5.34626534587413      0.66863738211601
  H           2.13545915696648     -2.73345849943662     -0.48465987910428
  H          -0.18836965922225     -3.40037215805083      1.44025029887281
  H          -0.31177410818356     -2.16297941840728      0.16273223790002
  N           2.23165938693355      0.93097509597545      3.26456162692681
