21
Coordinates from ORCA-job NEB E -33.376190023000
  C           0.47637947171243     -0.11738644297656      1.00312499276792
  C          -0.89506597447478      0.09980404489754      1.08597916598651
  H           1.10744166407550      0.66838474613740      1.38534957176310
  H           0.87129857668037     -1.11146199157680      1.14895856369342
  O          -1.83287389324479     -0.89066119636513      0.96700919256273
  C           0.71380796667530      0.32778915058355     -0.91223376578736
  C           0.15511868691440      1.60004222244390     -1.00100116182495
  C          -1.22413872053088      1.73754133051800     -0.67214939040581
  O          -1.36534259209719      1.28639408192876      0.88880796194224
  C           2.19269443207595      0.14699994743928     -1.14642719084623
  H           0.13860284269210     -0.50367027145045     -1.30813317575276
  H           0.80360597072551      2.44557229847577     -0.82269473982499
  H          -1.90641689059926      1.03491385378164     -1.14503937501984
  H          -1.61855248890819      2.74524506120129     -0.64453816247215
  C          -1.44020145705894     -2.23093883092146      1.13186803263862
  H          -2.36165045793110     -2.81099390387533      1.14258485235431
  H          -0.90783210223621     -2.37808905263095      2.07641312578493
  H          -0.81086680436314     -2.57193326455792      0.30371706021087
  F           2.93033423079442      1.07555797786672     -0.45656946780778
  H           2.43237002154100      0.28425144710496     -2.20835456040917
  H           2.54128751755748     -0.83736120802420     -0.81667152955359
