21
Coordinates from ORCA-job NEB_product E -33.441848659110
  C           2.67797547129425     -0.57180558547437     -1.81144070599176
  C           1.99044663730303     -1.87806179483855     -2.14344074489528
  H           1.94739892058143      0.05561919986256     -1.29446301629993
  H           3.50429234156130     -0.76891512688541     -1.12761764932707
  O           2.26544718904554     -2.80788539336872     -1.22111716611491
  C           3.15441679225600      0.16097319605710     -3.07278220593454
  C           3.62664845466123      1.54301331908319     -2.72686225204267
  C           3.12052008044501      2.64853041467682     -3.23712581492638
  O           1.28164362513440     -2.07234204220205     -3.09367245081364
  C           4.28721985680551     -0.63452086035001     -3.72687203393458
  H           2.32375397287378      0.21945522771990     -3.78238839698471
  H           4.44319050871961      1.58529958303268     -2.01738153249485
  H           2.31419509844449      2.62456095437801     -3.95114678358730
  H           3.49371297283817      3.62208292064609     -2.96955113502367
  C           1.64497675659089     -4.07562593407383     -1.39995646624862
  H           1.98766141593005     -4.70005394944480     -0.57938271073370
  H           1.93582054111065     -4.50686042326117     -2.35969470164163
  H           0.55868966005160     -3.97154672870597     -1.37651483560097
  F           4.68775450270911     -0.03225316346063     -4.89197434264984
  H           3.95743412092355     -1.64418982022524     -3.99194860760076
  H           5.16980108072041     -0.68217399316558     -3.07876644715318
