21
Coordinates from ORCA-job NEB_reactant E -33.406295717900
  C           2.93336235253349     -0.33590896168673     -0.55681846537970
  C           2.10781086708581     -1.05496658331752     -1.31047564714503
  H           3.35461063222043      0.59401579948426     -0.87791981761397
  H           3.21237959175937     -0.70988238321383      0.40758398569173
  O           1.65133803334913     -2.25000171890475     -0.85706986826806
  C           4.21992178185090     -0.37329606769882     -3.69867076374706
  C           3.35527959260375      0.62307796018369     -3.62484009105730
  C           1.95646584102141      0.51416780461662     -3.09425205228060
  O           1.62301166884058     -0.73926181912498     -2.54552691110383
  C           5.60892891728411     -0.25123451891601     -4.23478552788087
  H           3.96859734413228     -1.36611530270302     -3.35486392480027
  H           3.62325816575120      1.61005395553828     -3.97475489661740
  H           1.24901002262634      0.65204941220893     -3.92082752382076
  H           1.77778407280944      1.31056473030732     -2.35817441157427
  C           0.71858868727257     -2.94433169168532     -1.65893506564535
  H           0.48110676533698     -3.85129323254497     -1.10630361071658
  H           1.14347533361992     -3.20328400710801     -2.63233445587065
  H          -0.18945661145870     -2.35608365724858     -1.81431853731851
  F           5.88698357463563      1.01883354367074     -4.67320825871862
  H           5.75858680153863     -0.92123005529729     -5.09092970875379
  H           6.34775656518674     -0.48747320656000     -3.45847444737911
