23
Coordinates from ORCA-job NEB E -52.498314543040
  C           0.48198131051808      0.77015598774859     -0.46304742479009
  C          -0.72334010860892      1.27411931096587      0.06616597450082
  C           0.51848687689708      0.47881950363853     -1.94211053083763
  H           1.38171819195668      1.26185870679635     -0.10727083772380
  C          -0.71406951653715      2.17584800392427      1.27560347199555
  C           0.50223982164444     -0.93262907106387      0.38573060873257
  C          -0.73155159040656     -1.48751035859230      0.02484511015524
  C          -1.91906733288646     -0.79087186495398      0.42515472251627
  O          -1.84048060559862      0.65090597704192     -0.20302741807666
  C           1.75709214086668     -1.70373440472517      0.05648029165948
  H           0.58326213566007     -0.54346484048729      1.39775456281926
  H          -0.78182660251806     -2.14992638350750     -0.82531164478359
  H          -1.99598807244290     -0.57419687190232      1.48907310089173
  H          -2.84664787870955     -1.18467465735005      0.02397055629622
  H          -0.37430281227771     -0.05111283584571     -2.25953466328264
  H           1.40084124522152     -0.08828661137058     -2.21549464510935
  H           0.55736182086568      1.43211910769296     -2.46771165627132
  Cl         -0.30653037752437      1.28068610209283      2.80499125437571
  Cl          0.49085414846088      3.46281827952975      1.09674700955480
  Cl         -2.31106717411739      2.90130628038615      1.50408071065259
  Cl          1.96350923225744     -2.93795087895547      1.34647679215484
  Cl          1.70105733426153     -2.56827215551756     -1.48815142847560
  Cl          3.20646781301763     -0.67600632554542      0.07458608304561
