18
Coordinates from ORCA-job NEB_product E -29.355430591570
  C           3.45675658417497     -0.60336763604760      0.64814561443690
  C           2.26997617141417     -0.11292423970392      1.45013939128390
  I           2.85017926851849     -0.79440155660892     -1.40602688008803
  H           4.24771397212353      0.14753933092171      0.66881464312664
  O           2.65981284384859      0.20948213229985      2.68567374436064
  C           3.96473133154606     -1.92293274689852      1.23320294803170
  C           2.85502054246367     -2.91834112893392      1.37911599632056
  C           2.41043623967655     -3.36353928715614      2.53812309004870
  O           1.14224051075906     -0.03376249884397      1.05525853937167
  H           4.74800705220772     -2.32669791009893      0.58533811335238
  H           4.40077870836634     -1.70555143684669      2.21223027315788
  H           2.40275301184510     -3.24986522850686      0.45362966698748
  H           2.84337774170891     -3.04572929517179      3.47360673198920
  H           1.60128821792183     -4.07016480510715      2.60264523064524
  C           1.62901421905188      0.63734542505285      3.56810340902619
  H           2.11714855216753      0.87915623892485      4.50842388077245
  H           0.89806803292669     -0.16143467570437      3.70671224520308
  H           1.12149699927890      1.51358931842950      3.16066336197341
