16
Coordinates from ORCA-job NEB E -36.995869985500
  C           1.14206827537838     -0.94226765125513     -0.11616852957737
  C           0.42353763647848     -0.99802001116578     -1.31654829662681
  F           2.28290460118422     -0.22233393528200     -0.13930930949935
  H           1.25336386801967     -1.82604114369996      0.50386956987516
  Br         -0.88666422556788     -2.43986342394841     -1.37530692712824
  C           0.03636291385015      0.37004881172004      0.89180673349789
  C          -0.82695375874609      0.97868736211879     -0.02229969977163
  C          -0.26999446779510      1.44211296986462     -1.23203096812166
  O           0.19093636917245      0.01431723780341     -2.02521374325938
  N          -0.58047088169611     -0.37752759087500      1.98308440024367
  H           0.93261783963921      0.88433980986881      1.22667159204037
  H          -1.86146480443204      0.65581469015122     -0.01043949339652
  H           0.69983104398237      1.92672761532216     -1.18160747932746
  H          -0.93362941372750      1.86573735951139     -1.97330810640631
  O          -1.66904154351589     -0.85819115927549      1.78808223360012
  O           0.06659654777568     -0.47354094085867      2.99871802385753
