16
Coordinates from ORCA-job NEB_product E -37.047085552800
  C           1.42391296001721      1.04924645864173      1.23933479888005
  C           1.84456433702109      1.16981067914767     -0.20898973220773
  F           2.55467117369473      0.90482899343439      2.00006257666050
  H           0.79238711386993      0.16678754967704      1.41083702395535
  Br          0.45953257860609      0.51561147396881     -1.41473593591718
  C           0.70093773534067      2.32904384667119      1.68729917814452
  C          -0.49750912933717      2.66779650002564      0.84919741223024
  C          -0.65367979653743      3.83160379595772      0.24647962426793
  O           2.85106592242670      1.60372129387961     -0.63605497059617
  N           0.18461491772855      2.10814075518020      3.08892147879634
  H           1.41080159462552      3.16132684363220      1.73656519300461
  H          -1.25272276567722      1.89557076208793      0.79697476306375
  H           0.08833153610497      4.61089071001326      0.30229083898614
  H          -1.53209151308159      4.04289187783002     -0.33652219670104
  O          -0.36554010448971      1.06169006451643      3.30158878841709
  O           0.32802343968766      3.01873839533616      3.85465115901559
