16
Coordinates from ORCA-job NEB_reactant E -37.034426017100
  C           2.26075000627902      0.41113649518841      0.17484659753475
  C           1.33166485339429      1.19085593203241     -0.36813822820900
  F           3.22410579270444      0.92220722260080      0.95271647712905
  H           2.32734260806423     -0.65530922694525      0.04030962399051
  Br         -0.01207903804527      0.31832113703791     -1.42377658877259
  C           0.32786481081866      2.63227905905755      2.35439248974574
  C          -0.36211629312352      3.12716163659975      1.33464085866516
  C           0.10549457665565      3.19710858828936     -0.07863591635509
  O           1.32691799559964      2.52691350215692     -0.32315987520465
  N          -0.23131462701859      2.61917050876403      3.67844344110313
  H           1.32812401466040      2.22966668865855      2.30684742279172
  H          -1.35364085272838      3.52355737711888      1.51814750120907
  H           0.29325149023344      4.24245812978517     -0.34711002525201
  H          -0.68266654090971      2.81344543106975     -0.74332926041267
  O          -1.34456739400650      3.07010234582688      3.83424612896159
  O           0.46246859742217      2.14972517275887      4.55145935307530
