24
Coordinates from ORCA-job NEB E -35.891610259320
  C           0.37465029472060      1.13693233217221      0.88122283072444
  C          -0.91750943167336      0.71936847400462      1.16150406509059
  Br          0.60192257288115      2.95926849949886      0.39889032240648
  H           1.18244770765137      0.76564964945930      1.49231646170308
  O          -0.99024539579124     -0.37800672981438      1.96697393732954
  C           0.56694719798790      0.15518746797521     -1.03954513687317
  C          -0.72767716839941     -0.23624479984964     -1.31582387973831
  C          -1.75818029252051      0.72081432368752     -1.24421329680680
  O          -1.92538378785745      1.06296027044508      0.46305434884432
  C           1.65682629439163     -0.86170257018169     -0.84736866530044
  H           0.89515200452216      1.10294075228052     -1.44568557983729
  H          -0.99244872386446     -1.27408320735456     -1.14613534186578
  H          -2.77474848377682      0.41306480416065     -1.44403258328382
  H          -1.53101661845759      1.72648440614933     -1.57626999996615
  C          -2.25435188309118     -1.01011804751352      2.05318844519971
  H          -2.12264101936602     -1.84084100925754      2.74217104200084
  H          -2.57772784240134     -1.37809898783443      1.07695001518480
  H          -3.00612426842919     -0.31591038862683      2.43646357179306
  C           3.04216874166032     -0.23335372957215     -0.75702108750258
  H           1.63169318337256     -1.55207675997888     -1.69622772270132
  H           1.45107549850999     -1.45252683866012      0.04925255838921
  H           3.27501016131036      0.30535107536550     -1.67276030230952
  H           3.79750492578241     -1.00155526843184     -0.60951611670334
  H           3.10265633283811      0.46649628187676      0.07261211422243
