20
Coordinates from ORCA-job NEB E -33.158548919650
  C           0.73802730609700     -0.17926777653593      0.92007091418811
  C          -0.59357333277456     -0.35232446101193      0.39672098286998
  Cl          0.69215106261427      0.46335851426597      2.63573854016802
  H           1.30143851672607     -1.10796797505742      0.98086932405231
  C          -1.12171384627200     -1.66026280413606     -0.08580358379290
  C           1.49246952244378      0.89826841391202      0.05488676042725
  C           0.65236653664520      2.07083975233665     -0.07696092676768
  C          -0.79188905187443      1.97660488459270      0.27419636631850
  O          -1.37987889328907      0.71031206209113      0.19431076097503
  Cl          3.12804189461907      1.29594072050478      0.81261666802390
  H           1.79389826116627      0.40209375623157     -0.86999417774529
  H           1.09151390753048      3.03152972872771      0.13931512124629
  H          -1.39724402842490      2.60574582038633     -0.38764728518424
  H          -0.92692584906945      2.36039792020997      1.29695640583074
  C          -0.50451579380603     -2.05331219639188     -1.43543159048075
  H          -2.20240661419643     -1.56780351772640     -0.19661916203665
  H          -0.90675009247589     -2.43967270481985      0.64778210325132
  H          -0.71602260751015     -1.29282593207602     -2.18234230691752
  H          -0.92234353003700     -2.99821971829253     -1.77172493836055
  H           0.57335663188777     -2.16343448721081     -1.34693997606588
