20
Coordinates from ORCA-job NEB_product E -33.214101988320
  C           3.05858477081597      0.40158189415573     -1.74653904223617
  C           1.62739686712369      0.07554092011339     -2.18071823753367
  Cl          3.13895503466989      0.08590096833148      0.01514863833115
  H           3.76018546278178     -0.29814862625971     -2.20932945176294
  C           1.26734420314439     -1.38582357321014     -2.09937384295150
  C           3.44991781385652      1.83683919865054     -2.06985651421995
  C           2.69820624820665      2.87000208771647     -1.30304933698724
  C           2.11737789549374      3.91161222324870     -1.86827784754359
  O           0.87970810923260      0.92217455706561     -2.58970328390069
  Cl          5.21149646425862      2.03595226321779     -1.72469519160395
  H           3.33304651416355      1.99333307721192     -3.14593222118015
  H           2.68002856565141      2.73227153961932     -0.23155341583414
  H           2.13196936916675      4.06177485151093     -2.93467840656201
  H           1.59125086262755      4.64657634298070     -1.28515724479037
  C           1.60780676930881     -2.05370789265261     -3.43630234641936
  H           0.19441317954905     -1.46867788043332     -1.92243575658383
  H           1.80958608331753     -1.87284314282061     -1.29020785931408
  H           1.08305910812820     -1.55791514790766     -4.24914198876632
  H           1.30513594856314     -3.09706473577238     -3.41232829485097
  H           2.67633072994015     -2.00947892476614     -3.63396835529025
