22
Coordinates from ORCA-job P E -39.831784358620
  C          -1.40159018044721      0.44061873711284     -2.76307679652763
  C          -0.26379333499837     -1.57482081401055     -0.88957761818132
  C          -1.16582396585446     -1.92019677683113     -2.03000188515332
  C          -1.66530149777697     -1.03020496636584     -2.87726035244920
  C          -0.14883193982303      0.71086652825400     -1.91757756188250
  C          -0.23776876330770     -0.06905789393837     -0.60539038165934
  H          -1.37211841227880     -2.97339759388838     -2.15898012907941
  H          -2.29947791003662     -1.34282272111956     -3.69566698002053
  C          -2.57466247912883      1.19937464111519     -2.12049024405193
  H          -0.57063807230917     -2.11947219364736      0.00668039198098
  H          -1.25881857762360      0.88001224363052     -3.75503844824507
  H           0.74732876679915     -1.91512868796591     -1.13763082194257
  H          -0.06974306537841      1.78228366715784     -1.72482271432365
  H          -1.14321199172155      0.22437529438218     -0.06297907645185
  H           0.73740284349971      0.39008524343406     -2.46782879157883
  C           0.93811615737649      0.28028772485255      0.30231299612903
  O          -2.65138545780583      2.39268312716016     -2.13437584128293
  O          -3.48996796033545      0.44387921199495     -1.50374057361628
  H          -3.28064629784310     -0.50295307903928     -1.58892069160983
  F           0.85358297510465     -0.38847254855212      1.47889585974048
  F           2.11765769639864     -0.09157540542059     -0.25416027057655
  H           1.00317146749046      1.35502626168478      0.53117993078225
