22
Coordinates from ORCA-job R E -39.732369221060
  C          -1.10228279679607     -0.27866353296149     -2.75434377101104
  C          -0.41069866809142     -3.09256693561903     -1.91714511814976
  C          -1.62422526595028     -2.63683292379811     -2.21247882272149
  C          -1.97016959102548     -1.24663305163990     -2.43038848178914
  C          -1.12432789947882      1.47205482764904      0.42415838379449
  C          -0.12007456838893      0.61775564684734      0.40195049801362
  H          -2.45237889018485     -3.33200072612989     -2.27572037721862
  H          -3.02471874096464     -1.01634763788773     -2.30994599073642
  C          -1.43762035887296      1.15040891172678     -2.89256402515019
  H          -0.22577086372707     -4.14388771872102     -1.77863099454879
  H          -0.04960848566600     -0.49347694302121     -2.85089381666499
  H           0.43775255060341     -2.44130319933848     -1.78958918223987
  H          -2.04065974940009      1.25864468024471      0.94735587938824
  H          -0.15063228513393     -0.34241343147136      0.89744344203465
  H          -1.05973183113568      2.42345633015501     -0.07639137844619
  C           1.17036158139365      0.91471307696220     -0.29810897643824
  O          -0.62776455058953      2.02268511170595     -2.70987437475593
  O          -2.70702793414869      1.45927258760306     -3.21415152322077
  H          -3.24389502765593      0.67433659698202     -3.38378696091800
  F           2.15038626088045      1.19976595057327      0.60240966073691
  F           1.60998356071469     -0.18997958863171     -0.96908916633675
  H           1.10013355361816      1.74191196877055     -1.01737490362172
