24
Coordinates from ORCA-job NEB_product E -57.140357332460
  C           2.76215920522204      0.23144787352023     -1.54536952379524
  C           1.57290635265501     -0.23216061599083     -2.36848403515196
  C           2.31174116478047      1.02441545881809     -0.32068262674554
  H           3.33566378568548     -0.62534558266015     -1.18198217032737
  C           1.49968432475399     -1.74981162287294     -2.60615946388353
  C           3.67673490733060      1.09822594033035     -2.46104698442191
  C           3.05415491654512      2.42868420032854     -2.78444644458474
  C           3.58687860434700      3.58018505086618     -2.42184597534485
  O           0.72220817265093      0.49171987078844     -2.78500318049835
  O           3.88858077197349      0.30992405613792     -3.61545558219512
  H           4.63436167878523      1.25819097504984     -1.93561930214968
  H           2.13843323190388      2.37963456591981     -3.35494874288288
  H           3.12274321493895      4.51801028742465     -2.67091268778421
  H           4.49946219772129      3.63136651413271     -1.84968944881627
  F           3.36012694392714      1.59942125147244      0.28965061972347
  F           1.43677284676582      1.99272573504430     -0.57372055550618
  F           1.74477955080667      0.22098530492452      0.58960045088637
  Cl          3.05290108763332     -2.48158187529803     -2.99650491847523
  Cl          0.91245582079731     -2.39401055279651     -1.03928088735225
  Cl          0.33308903703389     -2.11295061909719     -3.87362218202787
  C           4.88696822761384      0.81752114950781     -4.47067053087321
  H           4.96631521729804      0.10822500895443     -5.29098670280682
  H           5.84853845947016      0.88747497843443     -3.94943609182632
  H           4.61864027936029      1.80470264706094     -4.85938303316031
