24
Coordinates from ORCA-job NEB_product E -55.213391906950
  C           3.11199262005852     -1.09886722016607      1.32666781057572
  C           1.96654397411157     -0.73693511139257      2.28817329705737
  C           2.61024189738842     -0.92650949517276     -0.10534977429896
  H           3.89251897923375     -0.34130154319183      1.46906373880244
  O           2.31206223720006      0.32138321709858      3.00614587468301
  C           3.71380766815886     -2.49860418372224      1.57092185126131
  C           2.69416718029822     -3.60577873224255      1.56377211930231
  C           2.87412663017765     -4.73669715240800      0.90642690531081
  O           0.91633948014556     -1.30919878595285      2.35930681386575
  C           4.49778381185999     -2.55613365194705      2.88194438276929
  H           4.44406753086076     -2.68026805884481      0.76920603606686
  H           1.80600767677685     -3.43844130240317      2.15541395912460
  H           2.14206643284341     -5.52362750719408      0.93980809232488
  H           3.74971126955055     -4.92108184394713      0.30483185794441
  Cl          1.29772970577343     -2.03211135974322     -0.52632277701359
  Cl          2.01449036931179      0.74738039088161     -0.28754381324496
  Cl          3.94692481723341     -1.15979420908353     -1.26218091752211
  C           1.35150995854512      0.78901139969289      3.94834874116443
  H           1.74188869161488      1.72571358923054      4.33559353095368
  H           1.23595775736934      0.05859137641872      4.75175824558371
  H           0.38812250850244      0.93930980945102      3.45930077133273
  Br          5.42500572311412     -4.26663948969421      3.01481805801686
  Br          5.87631939819302     -1.16935662338552      2.98326781096445
  Br          3.36981368167828     -2.38794351228177      4.45262738497499
