22
Coordinates from ORCA-job NEB E -31.815859723020
  C          -0.01393845304772     -1.01985379837852     -0.80306575210734
  C          -0.93079229882221     -0.00528011819136     -0.43691829346286
  N          -0.37347138998350     -2.34174519827105     -0.61801244671162
  H           0.59494818582533     -0.86286190663601     -1.68776939745846
  C          -0.95921648333968      1.32696335031198     -1.15731426058552
  C           1.27810645818167     -0.57629747139097      0.70459480660562
  C           0.49837109810903     -0.78488040941048      1.83838785798851
  C          -0.56504792143961      0.09468262164927      2.06988945428861
  O          -1.59792162695640     -0.15975555994467      0.64786330207290
  I           2.92865959331008     -1.88091628362376      0.35675085002032
  H           1.54629814643146      0.42814064246202      0.42219389710423
  H           0.44484914547274     -1.77906705547859      2.26086071836179
  H          -0.40389615739444      1.15321532580390      1.91653398156347
  H          -1.25323670450569     -0.13489043394911      2.86923421853562
  H          -0.99800141898272     -2.47346220769125      0.16735506806113
  H           0.38397238772825     -3.01129009212716     -0.63713999784948
  C           0.36619944449869      2.08355574480446     -1.25069573088274
  H          -1.69706748808692      1.95107377344153     -0.64912382108956
  H          -1.32371414609701      1.13984377889494     -2.17152746556225
  H           0.71755391012154      2.38475804677726     -0.26598349749158
  H           0.22507279028243      2.98575005759778     -1.84177133645578
  H           1.13227292869468      1.48231719334977     -1.73434215494499
