22
Coordinates from ORCA-job NEB_reactant E -31.843910906740
  C           1.96628724027380      0.39621932808813     -0.08913034531990
  C           1.39544905581935      1.32913436927016      0.67685443026580
  N           2.60809647820993     -0.74705996253023      0.37232800883715
  H           2.01304007843647      0.54767448638447     -1.15694072116387
  C           0.79698998707677      2.59561609053245      0.12805836543117
  C           4.00939059607497     -0.50955266647461      3.45657557407231
  C           2.83566654786256      0.08314388622440      3.53763924807059
  C           2.50451193347262      1.34563106846706      2.79448638456551
  O           1.29780699523463      1.19386303609790      2.06238579971807
  I           4.48245979171856     -2.28333374333503      4.48878032812201
  H           4.82550282725555     -0.13610570724226      2.86193879085545
  H           2.02880110536341     -0.32128478554892      4.13209340726196
  H           3.33005204923458      1.62924883993911      2.13368147132571
  H           2.34339605364509      2.14830825943289      3.52968935402654
  H           2.32293060106568     -1.01496000692170      1.30512037370330
  H           2.58814279882363     -1.52374883763580     -0.27117091895052
  C           1.72324154335455      3.79765202212108      0.32678091704546
  H          -0.14590208830392      2.78201930500774      0.64628968228641
  H           0.58895878997215      2.46516157012382     -0.93433988227139
  H           1.91215950259962      3.96244521370073      1.38500669707011
  H           1.26893464690609      4.69645910973834     -0.08381655686420
  H           2.67448346590390      3.62966912456026     -0.17421040808765
