23
Coordinates from ORCA-job NEB_product E -40.968229064400
  C           2.76799503651802      2.52678681067701     -1.42123753832558
  C           1.55722086037925      2.52528517316468     -2.35827476586838
  F           2.97582050288646      1.26412769666496     -0.91394380999408
  H           3.67464112525248      2.79114683201492     -1.98223642182072
  C           0.82015375322111      1.22078891981827     -2.44585431008365
  C           2.57358364766781      3.51260168916626     -0.24943281840018
  C           3.61749364662046      3.27529795629781      0.80818054371672
  C           3.33232606519606      2.97123135697312      2.05850273507270
  O           1.24446030556652      3.52667456386821     -2.95107093683063
  C           2.67086339060436      4.95304528226009     -0.76591820372485
  H           1.57435365122634      3.38265040665700      0.17945034461830
  H           4.63948805069674      3.38184907103516      0.47317756860358
  H           2.31701569573738      2.86479965288509      2.40342217038395
  H           4.10554796327999      2.81758210894700      2.79018575499617
  C          -0.40079902107478      1.30546602530606     -3.34954474317218
  H           0.54249565658713      0.92181363138718     -1.43136071109750
  H           1.52411780048236      0.46601133966576     -2.80745688287173
  H          -1.09677014908203      2.05180936502484     -2.97528681964511
  H          -0.90503459408030      0.34424667452556     -3.39375152008160
  H          -0.10546125974217      1.59564859483535     -4.35432888185265
  F           2.43253993245899      5.82297704138575      0.24312769081898
  F           3.92245834988757      5.21994285667696     -1.21141215723778
  H           1.96838958971027      5.17441695076296     -1.58233628720374
