18
Coordinates from ORCA-job NEB E -37.780750195370
  C           0.34526049767350      0.69954454206916     -0.90457513715069
  C          -0.76136041140570      1.38538711353430     -0.26390698909447
  O           0.00979765981443     -0.00906954090128     -2.01156455857557
  H           1.27277907129861      1.28006602862741     -0.98152721770369
  C          -0.44621549994701      2.52269246585785      0.52540576612748
  C           0.66659583645479     -0.49201191024239      0.40668555281148
  C          -0.54124826358658     -1.24930092995067      0.46082047410256
  C          -1.68756227415702     -0.58530527369360      0.92954114504083
  O          -1.86237427343894      0.74824826992136     -0.08553611531819
  N           1.84837466809161     -1.19034474755670     -0.07958059193881
  H           0.93471708680743      0.10932003527276      1.27439728606541
  H          -0.63869236122206     -2.07434344740838     -0.23016157000208
  H          -1.60959356775156     -0.03828987369071      1.86445644486090
  H          -2.63565361138284     -1.09216165794640      0.81148688336380
  H           0.72678296161972     -0.59861334486229     -2.30340577417917
  N          -0.22218074452156      3.46191034020867      1.14659725653926
  O           2.87665775334427     -1.01726494541204      0.52427416933512
  O           1.72391547230892     -1.86046312382698     -1.08340702428417
