16
Coordinates from ORCA-job NEB_product E -37.021389473920
  C           3.38073987793867      1.07091516015674     -1.64169506391753
  C           1.99460712499370      1.13699101917701     -2.24751948348105
  F           3.46608539184928      0.01103304603582     -0.78505885661859
  H           4.11598813082300      0.90297818312635     -2.44251383113578
  N           1.02522508051101      0.14744622017957     -1.60378116020786
  C           3.66047192200625      2.39642929379481     -0.91315335221283
  C           2.81613148659816      2.56078342315000      0.30365738681642
  C           2.05208293746806      3.61727893086387      0.50931786515088
  O           1.62321161643772      1.88828540437467     -3.08708794149532
  Br          5.57717090833536      2.43645011873308     -0.41089189619497
  H           3.52717932916130      3.21803572584262     -1.62034380306891
  H           2.87414986224890      1.75454790268204      1.02105154025212
  H           1.99358200676586      4.42806444770352     -0.19873151345554
  H           1.45018167114019      3.70523976536075      1.39561780148315
  O           0.56066138828647      0.52119152464256     -0.55992641280612
  O           0.82233126543608     -0.87307016582343     -2.19614127910806
