16
Coordinates from ORCA-job NEB_reactant E -37.024899552810
  C           1.91558422052310      0.08177365080655     -0.27250489911710
  C           1.48136044307859      0.95425747203213     -1.18816044282699
  F           2.52274391723006      0.42755585566071      0.86773307597794
  H           1.81073124347481     -0.98445187809524     -0.40162701626195
  N           0.83850415011631      0.39082269601215     -2.38483918688790
  C           4.35215516321521      3.98025053488816     -0.97363497993893
  C           3.65161449644995      2.99415048891951     -0.44122772991550
  C           2.16148713386190      3.06760508965031     -0.28024836049298
  O           1.48073463931822      2.28806638738704     -1.26167687621220
  Br          6.22147194824078      3.89901635336150     -1.19068035231138
  H           3.92074821931807      4.90929808589737     -1.31243951070335
  H           4.13531624496123      2.08247820551540     -0.12176652760607
  H           1.80375622902570      4.08337686049596     -0.46060065331952
  H           1.87047761541472      2.75187031767150      0.72720642014241
  O           0.47145499344460      1.17389373379632     -3.21844182347183
  O           0.72925934232675     -0.81196385399937     -2.43829113705465
