18
Coordinates from ORCA-job NEB E -33.124307261260
  C           0.71966695087686      0.15728024990706     -1.19843417102639
  C          -0.32989521016062      0.66170060739231     -0.35976631581469
  Br          0.01389167362071     -0.85517778885774     -2.74577110060227
  H           1.33587914764434      0.95404356428442     -1.61065414160984
  O          -0.30245604591968      1.96858685245335     -0.03679607254376
  C           1.57329760651727     -0.85022477507267     -0.29192973867501
  C           0.69460515248397     -1.83226256670632      0.28868714526106
  C          -0.72778062386965     -1.49356231211714      0.53371940697057
  O          -1.13893973182082     -0.14056380419493      0.31463752987867
  Br          3.03529420125917     -1.69137152222538     -1.41950112536931
  H           2.15611065550115     -0.21314024427944      0.37488571114866
  H           0.85045589242985     -2.86671304699943      0.02772072903549
  H          -0.99651043492690     -1.64329069445220      1.58686499630479
  H          -1.38472822563009     -2.14557619276320     -0.05868262809680
  C          -1.20788952096045      2.40473843310005      0.96177622127309
  H          -1.02590804723669      3.47048233238257      1.07564079324429
  H          -1.02495261119995      1.88678256849303      1.90626648671780
  H          -2.24014082860846      2.22826833965566      0.65133627390364
