18
Coordinates from ORCA-job NEB_reactant E -33.165799835320
  C           2.04334285584254     -0.11297056177173      0.03419198223315
  C           1.93867004948657      0.17967389950718      1.33554155517400
  Br          2.02556553753798     -1.80890355060733     -0.80036483945644
  H           2.09604688898606      0.70227591667200     -0.66436282298706
  O           1.89875519652704      1.50742777362120      1.61956459232635
  C           4.57474217632032     -2.47695152005656      3.20734119837957
  C           3.75027482183159     -2.07482028193919      2.25733059020024
  C           2.27332561163897     -1.94210134517124      2.47616204885669
  O           1.84501709690923     -0.58743628106837      2.44308758072036
  Br          6.43546105961889     -2.64368855512757      2.94050704348523
  H           4.26098100032061     -2.75784644830941      4.20065330878732
  H           4.12297732910006     -1.80454741063826      1.28001125345635
  H           2.00301864637333     -2.27218374572164      3.48265174480161
  H           1.72548226377988     -2.54626990603853      1.74644064020540
  C           1.85558350366864      1.89211126090438      2.98177782672150
  H           1.85682973525809      2.97970901567253      2.96728877143852
  H           2.72915823498990      1.52570819700175      3.52633688511839
  H           0.94876799181031      1.52571354307079      3.46794064053881
