20
Coordinates from ORCA-job NEB_product E -29.351366561160
  C           2.83666979148435      2.61827859334970      0.57254168093365
  C           1.63437564064621      1.74007369523509      0.22757163305700
  F           3.99918602739403      1.93374259876703      0.30361455855980
  H           2.85708170005449      3.51633761036086     -0.05908325065610
  C           0.38597414384226      2.51814136967188     -0.09957330991441
  C           2.80320781625595      3.01040700105098      2.06678961813998
  C           2.77682791888410      1.77106798901717      2.91338755022251
  C           1.80345220339484      1.46662056462084      3.74890632124887
  O           1.69216053920804      0.54208534272879      0.22059470819440
  C           4.02420088021668      3.86807438032831      2.40572092684722
  H           1.89203741132599      3.59266169139430      2.23835844566140
  H           3.62816747850409      1.11741540077366      2.78872397172891
  H           0.94348555623112      2.10437685604496      3.88028691268044
  H           1.82299511431481      0.56787342218880      4.33994151773061
  H           0.26457534596238      3.36857718896762      0.56528207394517
  H          -0.48095032962142      1.86613525775046     -0.03978099523913
  H           0.47079412642015      2.89200183786640     -1.11911794571994
  H           4.93798454347432      3.32057748584848      2.18908545120538
  H           4.01304562196036      4.12313449957667      3.46248484712856
  H           4.02152847004722      4.78711721445798      1.82326528424570
