20
Coordinates from ORCA-job NEB E -41.337284892710
  C           0.64846958102484     -0.25973996175872      1.02965281287449
  C          -0.53861424582159      0.41919647494013      1.34474856605634
  Br          2.28110456732626      0.69548813425717      1.31910498255706
  H           0.75926094692240     -1.27978744731087      1.38251041816666
  C          -1.75821707408971     -0.43538822346304      1.65164343803210
  C           0.50080007914946     -0.39956081074391     -0.87279524780827
  C           0.29915843014054      0.94135733015465     -1.21570086953605
  C          -0.87053188540200      1.61274506325237     -0.74587174749874
  O          -0.74383723216127      1.60826728508651      0.85637004688694
  C           1.74068880076651     -1.10773001792610     -1.34709432311470
  H          -0.37761805570630     -1.03980244001592     -0.87974542042093
  H           1.16746272355409      1.54252301279527     -1.44986282786200
  H          -1.81683705142833      1.09975339088490     -0.90236965437654
  H          -0.93424472952609      2.67262049857719     -0.96189166456001
  F          -2.72310730060771      0.25894332143858      2.25064413693724
  F          -2.31987899997202     -0.98031713237933      0.54011020323592
  F          -1.45253930669546     -1.47458217333932      2.44402825718739
  H           1.92932010440262     -2.00710528887161     -0.76573853799247
  H           2.61291459514437     -0.46113756127702     -1.29314931034963
  H           1.59624605297938     -1.40574345430093     -2.38459325841480
