20
Coordinates from ORCA-job NEB_reactant E -41.367243561970
  C           2.56025075950948     -1.08301944665876     -0.78633077614907
  C           1.39788509762378     -1.13407335079402     -1.43699089625286
  Br          4.07418442319013     -0.03820653529309     -1.17513083085550
  H           2.70744339246756     -1.68916539324835      0.09157094665873
  C           0.32999842910964     -2.08183321676846     -0.90367131271865
  C           2.80504914282495     -1.83515863246279     -4.21729052516629
  C           2.79131711639131     -0.52059489484532     -4.07095533233542
  C           1.70600261425543      0.25511542992143     -3.38133106407669
  O           0.88913400236160     -0.53434077177562     -2.52438123508289
  C           3.89431489432683     -2.59227141585490     -4.89418748045119
  H           1.99119586352547     -2.43734690910613     -3.83214660354449
  H           3.59462298975172      0.09027743934961     -4.45720534147848
  H           0.99471117882681      0.64642581049295     -4.11716114420146
  H           2.12654412241791      1.10508808850480     -2.83332665540919
  F          -0.84405469073257     -1.46789658462215     -0.74571418175023
  F           0.12848742926310     -3.10113528696430     -1.75061013533907
  F           0.64415411991936     -2.62649485392263      0.27779540729042
  H           4.33958276560962     -3.30657296357270     -4.20229075476182
  H           4.66940148343261     -1.92238318409464     -5.25678534910535
  H           3.48937486592526     -3.15711332828492     -5.73285673527052
