20
Coordinates from ORCA-job NEB_product E -41.367746710480
  C           2.11507317692455     -1.40228203899403     -2.10849285129199
  C           0.85414686979725     -2.17997587685209     -1.86482645397148
  Br          1.74899117181672      0.23259582881600     -1.06470958347407
  H           2.98497215533056     -1.86524996978129     -1.63816123547071
  C           0.96833283658636     -3.16255240741177     -0.66269005011473
  C           2.35790161221891     -1.08054653310557     -3.58283720471184
  C           3.51228558631800     -0.13069797233425     -3.71923391772848
  C           3.40801078112309      1.09229039135860     -4.20144389854662
  O          -0.15735668895567     -2.10316733285020     -2.49564965517466
  C           2.64750493731924     -2.38778390685054     -4.32586048295784
  H           1.45093388787467     -0.62252810896388     -3.98996914397372
  H           4.46714013520286     -0.51689529634768     -3.38730721064699
  H           2.46471533720895      1.49382890876409     -4.53288330052597
  H           4.25997425537159      1.74424907110332     -4.28245827964616
  F          -0.20130684696691     -3.67930311218244     -0.31095319385785
  F           1.77727791929103     -4.18044929677701     -1.01731207826632
  F           1.51637887858278     -2.60029702288417      0.41967527777319
  H           1.79874805828167     -3.06527925083067     -4.26770329318543
  H           3.52033971073535     -2.88474962292742     -3.90658303481961
  H           2.84393622593898     -2.17220645094898     -5.37280040940874
