18
Coordinates from ORCA-job NEB E -29.700492446330
  C           0.28562832097025     -0.12190493916759      0.37004239655165
  C          -0.07444517838431     -1.24157196738722      1.20484400338418
  I           2.47593225789005      3.07668472622866      0.46796155198461
  H           0.69147734977481      0.77654826392824      0.80911583861701
  C           0.28670965465316     -1.09678832154083      2.65958120330167
  C           0.13188245366729     -0.20131236835155     -1.09150558150089
  C          -0.66950495041042      1.01197767879966     -1.53769611625071
  C          -1.95503377263812      0.93097216162668     -1.81521063837302
  O          -0.63487233126051     -2.22871980148089      0.74791173846846
  C           1.42268472968727     -0.18011227821985     -1.75454271510513
  H          -0.37381205713485     -1.14271261143474     -1.34869247280721
  H          -0.11806051060710      1.93901776358880     -1.58819385944751
  H          -2.50097924848240      0.00402017724598     -1.74795947309846
  H          -2.51172104255118      1.79488241028279     -2.13614203383921
  H          -0.30925881360229     -0.29833893985601      3.09900560066474
  H           1.33608908411131     -0.83056798161657      2.76513197561308
  H           0.08752642622142     -2.02619384330325      3.18526402008548
  N           2.42975762809565     -0.16588012934231     -2.28891543824872
