18
Coordinates from ORCA-job NEB_reactant E -29.769764506300
  C           1.91623379208389     -0.16553393867888     -0.54518856296559
  C           1.26268621150580     -1.32307262898554     -0.53922578476587
  I           1.98911754677378      1.41466065660735     -1.94720865826010
  H           2.51576880479767      0.08290199945784      0.31158805452249
  C           1.38492347539899     -2.22134007584678      0.66635058989795
  C           1.88342063562010     -1.04685835241495     -4.67406828482005
  C           1.56884138224287     -1.71434137902480     -3.56576252362535
  C           0.32030794592533     -1.48632619732487     -2.77351741428091
  O           0.43802406827448     -1.92112905681552     -1.43499633998697
  C           3.05246084922219     -1.32626345119287     -5.40701512108137
  H           1.25812062347529     -0.25545013882912     -5.06611816754942
  H           2.21807556160580     -2.49541370234532     -3.19127569662061
  H          -0.47656193115070     -2.12370539232322     -3.17954244961500
  H          -0.01793621060668     -0.44697084092003     -2.83855518467539
  H           1.89729344536986     -1.72779185076688      1.48458034795948
  H           1.92969813479263     -3.12360036896483      0.39320126433699
  H           0.38861096842842     -2.51758680422019      0.98699546056583
  N           4.00031469624028     -1.55777847741137     -6.00904152903611
