18
Coordinates from ORCA-job NEB_product E -29.780599139730
  C           1.78683840018563     -1.20635375791253     -1.45611113819513
  C           1.73218116862951     -2.58239612890392     -0.79858906194765
  I           3.65087182792496     -0.21118964914203     -0.95268486092660
  H           1.00896286652163     -0.57639349241936     -1.01524894749292
  C           1.98828200316655     -2.62020746060485      0.67915715610018
  C           1.57228855647356     -1.29225024081778     -2.97247109259220
  C           1.39322277372899      0.06367569983393     -3.60131976630546
  C           0.27548594199260      0.45389942998072     -4.18180893507869
  O           1.46385542973386     -3.55709891956286     -1.44988927019095
  C           2.68533202236644     -1.97068838695745     -3.60540902383453
  H           0.67461768425225     -1.90379349395793     -3.13847583390874
  H           2.25433663276840      0.71676647960406     -3.55139194802728
  H          -0.58913692220291     -0.18673147276286     -4.25114364395619
  H           0.17990651586219      1.43328089572706     -4.61717846825503
  H           1.74953701736503     -1.67711910292666      1.16348573539759
  H           3.04424505007232     -2.83646809084246      0.84302268383125
  H           1.41544481717825     -3.43198047776392      1.12195509247259
  N           3.58172821398074     -2.46935183057115     -4.10669867709025
