20
Coordinates from ORCA-job NEB E -29.869696342210
  C           0.98872691501955     -0.51241404223819      0.50685333199045
  C          -0.35020069485158     -0.82165973479893      0.85045838610489
  N           1.68545159816618      0.40311050799008      1.25653317022312
  H           1.60851290730944     -1.28347820750988      0.06328979992095
  C          -0.96365238851863     -2.10708762521217      0.35588352199717
  C           0.32054237732458      0.49825449239454     -1.19408632744482
  C          -0.43695197692753      1.52912759300156     -0.61974156165997
  C          -1.65052847370684      1.21555096572590     -0.02000123001458
  O          -1.08884160674633      0.10552613281345      1.31901353352144
  C           1.59072838991675      0.79211228516161     -1.73411790792013
  H          -0.19037619020788     -0.32770287997656     -1.67488651946037
  H           0.07618983854305      2.43672314255709     -0.33084188166620
  H          -2.29317904455024      0.47961601734898     -0.48278317107771
  H          -2.17050320589809      1.97259358499936      0.54502728524916
  H           2.52414890510876      0.78096578179319      0.84112574045005
  H           1.09339487931449      1.09590309770070      1.69654649217800
  H          -1.26644006198306     -2.70998175232236      1.21062472243793
  H          -0.26032491342694     -2.67857175358003     -0.24288333108460
  H          -1.86145519946134     -1.89982107554943     -0.22687534840683
  N           2.64475794557564      1.03123346970108     -2.11913870533795
