20
Coordinates from ORCA-job NEB_product E -29.901173825290
  C           2.54707856169079      0.21637202526303     -1.69949910234499
  C           1.27555137637160     -0.53917452725423     -1.28860123334391
  N           2.97513546496554      1.17532109668129     -0.70597372048662
  H           3.35738430340332     -0.49596505768868     -1.89109538148434
  C           1.07195199279347     -1.88312617618055     -1.93216190134578
  C           2.22877502774077      0.95736115335578     -3.03866727177560
  C           1.23701754363362      2.06924035664896     -2.83186394693305
  C          -0.00992093809099      2.01714012490604     -3.25810690525437
  O           0.51631290237060     -0.06849840219859     -0.48037594097111
  C           3.45945365577513      1.49075042031066     -3.57652230734717
  H           1.83091783071200      0.23331577665648     -3.76006954408368
  H           1.61471576169713      2.92738422703070     -2.29579517750345
  H          -0.39821750893856      1.16725594650547     -3.79683318411089
  H          -0.69996866363563      2.82368158847942     -3.08258830399943
  H           3.46737114520164      0.71733581201566      0.05172175804546
  H           2.15696013782183      1.63130218169463     -0.31008223547319
  H           1.62489303690491     -2.62032370067235     -1.34993246148993
  H           1.45018567186338     -1.90670682724681     -2.95031994293908
  H           0.01935702022538     -2.15390033552475     -1.91051532018324
  N           4.43004567749406      1.90643431721785     -4.01281787697561
