21
Coordinates from ORCA-job NEB E -40.499332784350
  C           0.31489012707757      0.87213304651290     -0.46993021887694
  C           0.35087731879188      1.38084182298417      0.84504178121041
  O           1.44771034588540      0.40924985383960     -1.03892756378274
  H          -0.43152391209912      1.27262097214181     -1.15815173997976
  O          -0.75114001757608      2.04045326914922      1.29563291255105
  C          -0.57036658792157     -0.96599043349366      0.21726608762154
  C          -0.59593281524334     -0.93364404624758      1.60873761590240
  C           0.61504995358767     -0.75083831208233      2.27382377122274
  O           1.11657381846944      0.91578895108670      1.72449489155556
  N          -1.79018167549685     -0.90852107065999     -0.51803344219928
  H           0.21161940646324     -1.51239628057859     -0.29431806199170
  H          -1.52231942947480     -0.64397890091595      2.08673911209612
  H           1.50486007905642     -1.21216323546476      1.87116090720728
  H           0.61178881531313     -0.61431174348821      3.34343485592373
  C           1.35835440352001      0.10080942960486     -2.41825479148873
  H           2.34044608481998     -0.26431865560736     -2.70927012640915
  H           1.11208769981466      0.99261880137254     -3.00237448289437
  H           0.60737820463999     -0.67095088466857     -2.60991164532865
  H          -1.40906414886819      2.21108392065091      0.61032213860183
  O          -2.72825848783862     -0.31121079148946     -0.02938957976721
  O          -1.79284918292081     -1.40727571264625     -1.62809242117411
