23
Coordinates from ORCA-job NEB E -32.572752094520
  C           0.38711988874943      0.46040837642195     -1.13500261983236
  C          -0.62496913483871      0.35530868332074     -0.15472149189927
  N           0.33087314139127     -0.25091638392470     -2.34418530317925
  H           0.90612319046583      1.41141780608574     -1.22384553983406
  C          -0.65876371963390      1.35445386259640      0.98595454128496
  C           1.72157808270845     -0.66685907324130     -0.14497876418226
  C           1.02355186766265     -1.87757466798527     -0.03841010030943
  C          -0.11467129781275     -1.96173324872364      0.75244055625677
  O          -1.23491991618274     -0.75999971052655     -0.03229846076292
  O           2.81868149183079     -0.66381554637723     -0.96161616971657
  H           1.80800487804684     -0.03782775655675      0.74089572144361
  H           1.16339547802581     -2.57369071757160     -0.85106351067212
  H          -0.12956049046793     -1.46696978449059      1.71386469693403
  H          -0.71327528027194     -2.85733564534219      0.70379092596033
  H          -0.38054446133242     -0.97063172663094     -2.30498274740106
  H           0.23119855041962      0.33285715517418     -3.16139051572933
  C          -2.09783448408187      1.63727354753410      1.40837934246406
  H          -0.16023114994475      2.27806906606124      0.68796007775598
  H          -0.11580381698703      0.93297350195279      1.84082711465515
  H          -2.63522141382384      2.13977917794610      0.60734073854532
  H          -2.12316850133018      2.26708979332258      2.29464227378181
  H          -2.60501725442568      0.70046727123995      1.62503657665723
  H           3.20345435183305      0.21725601971500     -1.00863734222060
