23
Coordinates from ORCA-job NEB_product E -32.610045198910
  C           2.35819532790468     -0.68637058380167      1.24674399285962
  C           1.19326988530437      0.07947744676783      1.88355123088382
  N           2.00552928894962     -1.09740046267659     -0.10584520619660
  H           3.25755345819713     -0.06650234679152      1.19947789357550
  C           1.46550528795587      1.50784403611348      2.28517139137482
  C           2.67512186425603     -1.93867380809138      2.08835792656753
  C           3.58818797694005     -2.85592712264396      1.32717093135579
  C           3.26795633406687     -4.08484409486265      0.97122779479812
  O           0.11080209399414     -0.44236177112705      2.00193790383309
  O           3.28288633051402     -1.48318597032377      3.28567562983450
  H           1.72759110194355     -2.45285328073873      2.31426227123269
  H           4.55846599728411     -2.43797370356764      1.10037870094344
  H           2.30138771707371     -4.50631120907704      1.19536857143653
  H           3.95058257865467     -4.71728747635992      0.43028798374230
  H           1.17953668455022     -1.68776767635130     -0.07076279436602
  H           1.77585697563411     -0.28349412967418     -0.66714960729545
  C           2.18865965818130      1.51998093160501      3.63424646839230
  H           0.51780324602564      2.04292686343993      2.36898444135556
  H           2.08760266287875      1.98928366198109      1.52837141711038
  H           1.53591815839851      1.12544237550854      4.40859780813218
  H           2.46930996063061      2.53669719064560      3.89772038905042
  H           3.08037152796328      0.90044506047051      3.59530224673485
  H           3.52870588269878     -2.25084393044457      3.81262261464464
