23
Coordinates from ORCA-job NEB_reactant E -32.611087590740
  C           2.05965154037249      0.07040761570220      0.59640837406918
  C           1.40680167826687     -0.25526919119101      1.71331345383245
  N           2.78451543139004     -0.72891864367828     -0.30617114093270
  H           1.96485431423089      1.09735609899692      0.27330720051378
  C           0.67446143909474      0.79556024189273      2.51008642578804
  C           4.01430457139010     -2.21919691881072      2.55453715816278
  C           3.16727101071520     -2.95637369881356      1.84984934548484
  C           1.69661246120462     -2.65891255525434      1.73073922364991
  O           1.29115137102996     -1.47304273765767      2.36126835693586
  O           5.34071917616209     -2.45244858176523      2.70158890918399
  H           3.70702851615088     -1.32662684256664      3.07853967090657
  H           3.49690238224299     -3.85266040713407      1.33841248651297
  H           1.13480988352348     -3.45355915666936      2.24104458621865
  H           1.39379003886401     -2.66138122988017      0.67431476452193
  H           3.25917067294593     -1.50856983408324      0.13133073560147
  H           3.43472181037872     -0.17955298130078     -0.85053432361960
  C           1.51096605164478      1.26619768881285      3.70074163069951
  H          -0.25561114241085      0.36056032524116      2.87961665551087
  H           0.43347585631546      1.64375871149140      1.86954687883454
  H           1.74258843491500      0.42353778256043      4.34696651461002
  H           0.96584173995375      2.00817792220271      4.27963471984694
  H           2.44322847326358      1.70928287987571      3.35709961209311
  H           5.58324428835527     -3.27152648797105      2.25085876157490
