17
Coordinates from ORCA-job NEB E -34.421630674480
  C           1.06853996103591      0.46580189391310     -0.23495703349738
  C           0.13958239733928      1.44491798793321      0.08159035218647
  C           0.96715415167258     -0.16647877697353     -1.60130696056607
  H           2.09243565344938      0.60151099062127      0.09287274981765
  Cl          0.54846343645663      2.53541763928247      1.39796523009092
  C           0.30982479110587     -0.99165619539640      0.93191254022766
  C          -1.00612876652059     -1.01723044533594      0.52358436460732
  C          -1.79642309321879      0.16382182949589      0.72625019525060
  O          -1.11137766498597      1.29299935371670     -0.17469677463264
  H           0.94923281327491     -1.82943498826876      0.69904892724199
  H           0.56213248057500     -0.47867392290456      1.84972115480704
  H          -1.30730156645886     -1.70342135509789     -0.25430923269637
  H          -1.74055605429441      0.60600171342344      1.71925522529051
  H          -2.80894444304179      0.14232110137643      0.34013270480153
  F           1.66241206977852      0.58039385855165     -2.49649608210888
  F           1.53743359107281     -1.39317770775040     -1.63512019396551
  H          -0.06647975724049     -0.25311297658669     -1.96544716685483
