17
Coordinates from ORCA-job NEB_reactant E -34.442940646980
  C           1.65938854486656      0.06109580001962     -0.08182413130941
  C           0.99286160379124     -0.25080584178064      1.03710399801479
  C           2.15640789556862     -1.00034170160313     -1.00969882239687
  H           1.85954142802413      1.08454701371677     -0.33532728452290
  Cl          0.43930981662503      1.03175457954200      2.06556054847717
  C          -0.11965514526325     -3.97545759150236      3.73966148786027
  C          -0.19376672607236     -3.27378902120654      2.62584665712156
  C          -0.02398537251968     -1.78763843850656      2.55930663307689
  O           0.73867826541495     -1.49423499174787      1.39423519764406
  H          -0.26905451677753     -5.04060722919944      3.74652017690109
  H           0.08253483662368     -3.51368814769782      4.69228707350214
  H          -0.38796818753104     -3.74059364908537      1.67150751860845
  H           0.48577891137554     -1.40689360303296      3.45218463957248
  H          -1.00792245505987     -1.30204597102211      2.48300690063746
  F           3.05798703353538     -1.82339773676704     -0.40883356644521
  F           1.15412529564134     -1.81459217834359     -1.43664031834834
  H           2.64153877175726     -0.57921129178296     -1.90319670839363
