18
Coordinates from ORCA-job NEB E -38.661540946630
  C          -0.00881517497508     -0.54315272948552      1.33205649940431
  C          -1.21544336413427     -1.11501325462361      0.86415195419347
  O          -0.03338232758051      0.66613190918138      1.92714857409183
  H           0.76195612720621     -1.17840502825199      1.75432075076364
  H          -1.21901568837283     -2.17725643989126      0.60807873575844
  C           0.65233419724063     -0.16395304259811     -0.49000217753707
  C          -0.33042987784840      0.69983537729464     -0.99770488523382
  C          -1.60439134117634      0.18439119488725     -1.25748826315201
  O          -2.08890128239808     -0.33329312494429      0.35930841627002
  C           2.02587517541071      0.40612610567750     -0.25328902846412
  H           0.71800048430983     -1.17247030890600     -0.88350144568307
  H          -0.22464264988400      1.75646157199377     -0.79310647686055
  H          -1.68523891578319     -0.78333130854355     -1.73440848430148
  H          -2.39627276839718      0.87217877601407     -1.51269537804008
  H          -0.85613182830319      1.11669115102478      1.67261136075380
  F           2.02008322961757      1.62836440871090      0.28110900901244
  F           2.78043265831582     -0.37007679776152      0.53966093409532
  F           2.70398334675231      0.50677154022157     -1.41625009507107
