18
Coordinates from ORCA-job NEB_reactant E -38.692282042930
  C           2.09804037463797      0.58134362441838      0.07475402933784
  C           1.36996067961778      0.40902312659219     -1.02368031030302
  O           2.73768457571907      1.74426060791897      0.44833782097166
  H           2.18727733569498     -0.25348181065022      0.75533459449039
  H           0.88381436681115     -0.54169608222695     -1.17990697995709
  C           4.11062257135082      3.16846742295853     -1.89881535096700
  C           3.17616770662493      2.37578782325497     -2.39580531579794
  C           1.71651736463509      2.50640917170187     -2.08864345361591
  O           1.06941337451174      1.25350162793264     -2.05100288231320
  C           5.56333316843580      3.00556683559571     -2.20146017354155
  H           3.89396250859425      3.97604654311517     -1.21704651560447
  H           3.43435867465862      1.56255369549686     -3.06180994077093
  H           1.22631928284674      3.04588802112773     -2.90755868271973
  H           1.56801570351389      3.05767431643500     -1.15500822528745
  H           3.38850301483714      1.54710099756562      1.12791839149902
  F           5.82337102142821      2.05719296091401     -3.11107546320164
  F           6.11798264114309      4.14106927171095     -2.66363590953476
  F           6.26735563493871      2.67449184613856     -1.09919563268423
