27
Coordinates from ORCA-job NEB E -48.121276364990
  C           0.29086117122001     -0.48535449161134     -0.57883003543526
  C          -0.98274821231668     -0.16309112197125     -1.31529463777358
  O           0.03997896667366     -1.11311247825411      0.66232989722771
  H           0.93357598449727     -1.12628924313702     -1.19896447759273
  C          -1.39099842953312     -0.95146925330355     -2.50539925246237
  C           0.94070009375461      0.89453588146676     -0.32616428798410
  C          -0.20174443184036      1.81011710710065     -0.09893829988150
  C          -1.57228143447724      1.35770023213602      0.23142316544978
  O          -2.03124142055609      0.33122339676776     -0.58937815688621
  C           2.03639174224030      0.97198707877062      0.76214744833602
  H           1.43833131032246      1.15407219370235     -1.26807515419017
  H           0.04725162024942      2.78672586645153      0.29665768968352
  H          -2.29920774083570      2.17032502149944      0.13116802261851
  H          -1.58855117766898      1.03048110484950      1.28436955677214
  C          -0.44066324999362     -2.43416167467249      0.56854719744581
  H           0.20040320053405     -3.04217515568927     -0.07934918053263
  H          -1.46625587244509     -2.47276829988461      0.19008872786934
  H          -0.41556385503434     -2.83208015469100      1.58159666887688
  F          -1.87379205145055     -2.20294573488181     -2.25106956385203
  F          -2.34624740919894     -0.34474649184993     -3.22097351388873
  F          -0.34675913528278     -1.14928082537596     -3.33370508128988
  C           1.51936671517109      0.95130162870860      2.19486662275951
  H           2.60573606125746      1.88978649171802      0.59992366548382
  H           2.70971609652990      0.12766543638295      0.60745386523774
  H           2.35881028126655      0.97360544024636      2.88622367470622
  H           0.94242613876719      0.05068099640015      2.37533598821177
  H           0.89250503814953      1.81726704912165      2.39400945109043
