27
Coordinates from ORCA-job NEB_reactant E -48.183491579680
  C           1.26518781905738      0.05419718413678     -0.17327621360041
  C           1.25221705902132      1.15168223800837     -0.93821409230633
  O           1.20217750972780      0.04804175811689      1.18521692629340
  H           1.33458001696480     -0.91255842968763     -0.65493358840472
  C           1.29352641809561      1.00756353051787     -2.43918737622798
  C           3.72814302928147      3.80132995145727      1.23553471683743
  C           2.93093873303322      2.76972662331006      1.01495643513753
  C           1.46928239968586      2.88843075401354      0.70634398747943
  O           1.16333412343069      2.47265250181608     -0.62341879238720
  C           5.18479525484357      3.70139600941980      1.55237759562462
  H           3.32588328673925      4.80631548287647      1.21824124989823
  H           3.32202935479964      1.76166418947910      1.02631034161923
  H           1.15332294474432      3.93343591054329      0.73195407281110
  H           0.88026245150785      2.30593671813493      1.42251177616829
  C           1.46075796601596     -1.20098797892511      1.78905883071842
  H           2.48796541566399     -1.52819316380002      1.60050579905139
  H           0.76715908032708     -1.96601548761252      1.42753593368202
  H           1.31687489492061     -1.05536285335709      2.85776055820267
  F           0.22179118469769      1.54518343039396     -3.03656656574360
  F           2.36696776760270      1.61025682147260     -2.97248764813265
  F           1.34548109302792     -0.27252771345949     -2.84378767759166
  C           5.49564595998188      4.32384592538342      2.91357284738649
  H           5.75096339984335      4.23247118628037      0.78212262235806
  H           5.49754368705023      2.65594172262861      1.54321989254634
  H           5.20547862363841      5.37190589859428      2.92890333112662
  H           6.55965250364858      4.25746996262151      3.12734070685578
  H           4.95103802264883      3.80519782763668      3.69930433059751
