27
Coordinates from ORCA-job NEB_product E -48.176332657050
  C           2.74127592836635      1.24010549119054      0.43314396687588
  C           1.45007670493701      1.13575224734998     -0.35478206463859
  O           2.65159838680954      0.57302696304559      1.65990250111761
  H           3.56885471455805      0.82980534850393     -0.17200124920578
  C           1.66870826478200      1.07146435298081     -1.89949014128438
  C           2.98030414844598      2.76181074279918      0.66476884019625
  C           1.94938784327059      3.29550945877477      1.61385871321064
  C           1.21752432357499      4.36534377449770      1.36903479406198
  O           0.34406927838239      1.09471245715873      0.09485386163217
  C           4.41727483896862      3.04030026463740      1.14523095135863
  H           2.86882080378217      3.26027253744925     -0.30445589332134
  H           1.83426887556029      2.73387915944088      2.52758184777656
  H           1.31571273741165      4.92713265073291      0.45356693831034
  H           0.49180823215699      4.72963326590457      2.07498606775547
  C           2.58897863764017     -0.82991314445375      1.54594502370105
  H           3.45311334505709     -1.22005110352735      0.99427697297023
  H           1.67128362700651     -1.15769830686665      1.04734450173743
  H           2.60200000331605     -1.21429252483862      2.56341750201000
  F           0.53389213824586      1.17030161543275     -2.58289839864906
  F           2.49373560885664      2.03103826017556     -2.34677774945251
  F           2.23895731292521     -0.10251545048885     -2.22555880152330
  C           4.70537067575713      2.62384188956404      2.58164943731790
  H           4.58584917318704      4.11503409970229      1.04657895674320
  H           5.11135358307578      2.53476179260018      0.46959612966961
  H           4.12439709898493      3.22323427600818      3.27692202453409
  H           5.76040736301096      2.77383468089139      2.79992491803984
  H           4.46037635192998      1.57847520133460      2.73798034905607
