18
Coordinates from ORCA-job NEB_product E -42.654712907110
  C           3.02013842339284     -0.64054877478958     -1.50216843044364
  C           1.98113964428229     -1.54476162013338     -0.86657130729198
  C           2.83776130866885      0.70620122974419     -0.99642536368798
  H           4.00824196244153     -0.99018302333256     -1.17276734742559
  Cl          2.02189843984720     -1.43832566189923      0.88389021158284
  C           2.92342175507220     -0.71624329594924     -3.04536872254143
  C           1.80840037709119      0.15407221763064     -3.56281216208656
  C           0.69756905841898     -0.33262210511375     -4.08001166107018
  O           1.22152528742990     -2.25801284435184     -1.42642815997613
  C           4.25394998491040     -0.34026217968168     -3.69768209799988
  H           2.71340011080256     -1.75855085621980     -3.31057958864406
  H           1.96590567280846      1.21881985840582     -3.46687126216696
  H           0.52737530088131     -1.39244795517535     -4.16894232571223
  H          -0.08999637250773      0.31343028456511     -4.42545381278702
  N           2.67623026214713      1.75854250533162     -0.58647873033280
  Cl          4.08911907531863     -0.43583540355284     -5.46436102619511
  Cl          4.76894761791520      1.30453927876628     -3.25651156044659
  Cl          5.53697209107904     -1.47881165424441     -3.19755665277470
