18
Coordinates from ORCA-job NEB_reactant E -42.642261406850
  C           1.62110376115189      0.55328194763254     -0.71297066681165
  C           1.56871434270424     -0.76715607869301     -0.47357416586280
  C           1.47350709543797      1.18628781959348     -1.95261714417259
  H           1.76193831594261      1.22408380760278      0.12146500779418
  Cl          1.70640523591165     -1.33349723646790      1.15011646690658
  C           3.23825355558850     -0.50822839451016     -4.07640873277174
  C           2.91130494333695     -1.36467845700613     -3.12255733671218
  C           1.50123489647384     -1.64322653095887     -2.69827955807146
  O           1.40409224766178     -1.80986525277822     -1.28853720425174
  C           4.62229520674363     -0.20858501026537     -4.52429579923615
  H           2.48501775586367      0.06851628392587     -4.59542870974868
  H           3.66462947375895     -1.92952288492788     -2.59110628964561
  H           1.18490506641837     -2.61410980707333     -3.09473854473252
  H           0.81377361449280     -0.86972410478339     -3.05184105292504
  N           1.35326548830751      1.76245972370636     -2.93921965522897
  Cl          4.96395669268100      1.51890234221420     -4.20850486769999
  Cl          5.86133193131718     -1.17598401515714     -3.71646697426451
  Cl          4.74857037620745     -0.49595415205380     -6.28313477256513
