20
Coordinates from ORCA-job NEB E -28.963702082020
  C          -0.77480250743514     -1.30759366285284     -0.40848548869165
  C           0.35648584687163     -0.62866738662221     -0.59867948947139
  C          -1.83747702910271     -1.20167903305315      0.64129563664392
  H          -0.96640931159546     -2.07582280775485     -1.14468709660222
  C           1.26079181950706     -0.97265746964969     -1.76059007504754
  C           0.88810880201360     -0.46711605329572      2.97907317553335
  C           0.37159710444069      0.58514494631089      2.44521163461192
  C           0.20757518950576      1.14544078414541      1.04708836317760
  O           0.90621207669101      0.43572362765651      0.06947783501761
  H          -1.08738433992132      3.77305069443866     -2.40226271238824
  H           2.90024179430528      2.64006488827353     -2.18800207210075
  H          -0.05333053862500      1.23848212395491      3.20709094364142
  H           0.65315054509113      2.14875019180075      1.03671562683184
  H          -0.85526230975727      1.22981861455162      0.79776422921752
  H          -1.44508081619976     -0.88933455080694      1.60435770945105
  H          -2.30324955803308     -2.17637975282698      0.76971637781035
  H          -2.61976125339836     -0.50569288623341      0.33223794784002
  F           0.94440668232438     -0.20904733189520     -2.85398267385351
  H           1.15321970626471     -2.01601101308063     -2.06611805337827
  H           2.30096809705285     -0.74647392306066     -1.50722181824305
