20
Coordinates from ORCA-job NEB_product E -29.346009062220
  C           2.37747730914752      1.06219913415006     -0.15381466941517
  C           1.03513874347571      1.43674584335727     -0.76536069236316
  C           2.16171111789409      0.23460563625332      1.10992409793420
  H           2.92840209069225      0.46833254723627     -0.89193890578676
  C           1.13829812759790      2.03814266501315     -2.16560849588176
  C           3.20924113569572      2.32509627728334      0.15825951125061
  C           2.46499807678715      3.28399046852113      1.03481091896392
  C           2.86893119360762      3.65976384244341      2.23310969343529
  O          -0.01830061180762      1.27044175848342     -0.21845157912137
  H           3.48223965491939      2.82266414561725     -0.77644927595327
  H           4.13154107414017      2.01588223982366      0.65374678346108
  H           1.53689009404757      3.66452000691412      0.62836309298344
  H           2.30579659835400      4.35357500829828      2.83288627049405
  H           3.78525094315516      3.29016770529594      2.66428480643501
  H           1.62494602787581      0.82169699879676      1.85035821190155
  H           3.11626969403776     -0.07329255463519      1.52864644579911
  H           1.57341111469817     -0.65130873570447      0.88516931533325
  F          -0.09727612593714      2.26031801007203     -2.70270066577950
  H           1.66953831811347      1.35660033814061     -2.83940351906937
  H           1.65279542350531      3.00505866463964     -2.13413134462115
