20
Coordinates from ORCA-job NEB_reactant E -29.332067295370
  C           1.22518322609867      0.28901658192933     -0.01602974295676
  C           2.36826335188520      0.95376007504640     -0.17035860286411
  C           0.58088373894561      0.00907653322098      1.29852696439873
  H           0.72530592288849     -0.09740254817475     -0.89167106406974
  C           2.96943379070633      1.18837370509314     -1.53422541784849
  C           2.11638474239400      4.67617980663628      0.27296532754123
  C           2.36523073054643      3.66932217191079      1.08715826321463
  C           3.52005369731310      2.72474521254324      0.92692153376581
  O           3.09116383897199      1.36738515182379      0.92249157588733
  H           1.27186794013602      5.32788531064423      0.41736651210579
  H           2.74714101489680      4.88990791835920     -0.57368918058392
  H           1.71489131121304      3.44727708567917      1.92255007265649
  H           4.18687019052224      2.79128119925050      1.79325941301221
  H           4.08847266284176      2.97081488592616      0.02282242401207
  H           1.14168446122026      0.47851702355486      2.10106427078666
  H           0.54239131151231     -1.06496698729986      1.47758999913812
  H          -0.44212492740995      0.38374286811897      1.30046437925122
  F           2.63791803122513      2.43054777934957     -2.04328072953421
  H           2.59255665533820      0.45422507179685     -2.25081385080072
  H           4.06362830875436      1.14981115459112     -1.49521214711236
