23
Coordinates from ORCA-job NEB_product E -43.226500783240
  C           1.30494844411274     -1.64950145477929      1.45013539840912
  C           2.29796239911703     -1.26015323127979      2.52099143283689
  C           1.93850070680352     -1.68836871148596      0.06761320168383
  H           0.57862351307196     -0.82315232752444      1.42243373621725
  F           3.29415100012935     -2.16694268023858      2.66147735744280
  C           0.50881483516042     -2.89852159176976      1.95926562329087
  C          -0.89725728635184     -2.86360407141432      1.41150183228791
  C          -1.83113705079768     -2.04431869727116      1.85762903649557
  O           2.25104826877665     -0.32775547202024      3.23950483880273
  C           1.16283751057481     -4.25815091451087      1.70920245157219
  H           0.44095903871904     -2.75385188004590      3.04661477095841
  H          -1.11635491633953     -3.55939776132968      0.61510757997572
  H          -1.64499284171765     -1.34305016664578      2.65607857309963
  H          -2.82384270393542     -2.04142402339198      1.44399966461933
  Br          2.61701315212410      0.13198527475617     -0.32980846065365
  Br          3.43354716268799     -2.89897306171041     -0.19129826677971
  Br          0.60929448160567     -2.10290092628578     -1.29614713085929
  C           0.43990710945610     -5.34592796314317      2.49763438068446
  H           2.20751508146602     -4.24591703159476      2.02171178249429
  H           1.12191864521512     -4.50592031325498      0.64630201275387
  H           0.50928775727576     -5.15299395494496      3.56591043790160
  H           0.89203412641544     -6.31266130191732      2.29391264326475
  H          -0.61177843356960     -5.39149773819705      2.22572710350143
