22
Coordinates from ORCA-job P E -28.575360251340
  C          -1.57827340322580      0.27195211364585     -2.17006654046412
  C          -0.21476897903163     -1.69347337045147     -0.38194824658832
  C          -1.29775771141387     -2.05529843422832     -1.34821325694974
  C          -1.91183437747275     -1.19302574011048     -2.13851771126682
  C          -0.94104333587709      0.67265426973296     -0.83902123361305
  C           0.24496037793668     -0.24087743136170     -0.51855187202378
  H          -1.56903253648394     -3.10220784346850     -1.36382945291421
  H          -2.69085036437684     -1.51800649278435     -2.81041947335417
  N          -2.78251941612570      1.06091756823824     -2.41040956810291
  H          -0.57158515810427     -1.86989846794698      0.63683207596669
  H          -0.83475683440861      0.43514154230701     -2.97859899645400
  H           0.65180116234602     -2.33817219562586     -0.54610952631272
  H          -1.68647859258954      0.58154686377612     -0.04801823737566
  H           0.69667364316078      0.08432427965669      0.43600459619582
  H          -0.60707888003318      1.71493496382206     -0.87941443147988
  O           1.23316889496597     -0.19879410387538     -1.52875268541907
  C          -3.16089658677462      1.14183243465221     -3.80528737186103
  H          -2.64407196529376      1.99972997836981     -2.04801041947054
  H          -3.41045207911832      0.14651612901125     -4.17017840998975
  H          -2.36695753187192      1.55213115882019     -4.45064310611356
  H          -4.04468357774021      1.77136167111153     -3.89381164114457
  H           1.46384725153260      0.72065110670913     -1.70047449126461
