22
Coordinates from ORCA-job R E -28.503492771290
  C          -1.34716209693860     -0.12520023360508     -2.97485385090391
  C           0.21485200577679     -2.38254382509618     -1.70097776832269
  C          -1.10906183843185     -2.24230638312605     -1.72370761405365
  C          -1.87400712177810     -1.19983849206324     -2.36700234619521
  C          -0.77604872149280      1.39464271098852     -0.12720804490025
  C          -0.15585784672165      0.40518813612061      0.49193642699932
  H          -1.70980488671235     -2.98091712036220     -1.20564596140823
  H          -2.94675650782680     -1.31711492118983     -2.32544960334658
  N          -2.03320488278662      0.85168968882268     -3.65379638231874
  H           0.68227812494880     -3.19712646307005     -1.17601728635841
  H          -0.27548539620135      0.00724040103628     -3.00844192058623
  H           0.88051069908264     -1.69890489821772     -2.19844428311735
  H          -1.84493491585826      1.41283724985150     -0.20704853721059
  H          -0.67855301031130     -0.42505307266422      0.94175742241570
  H          -0.23524038856214      2.21465541800324     -0.57251965361900
  O           1.18042494811616      0.28606105931303      0.65314304539629
  C          -3.46990285309786      0.94577930140018     -3.57704867131407
  H          -1.55770386285410      1.73857742262667     -3.71779922176651
  H          -3.82992241507014      1.12314342397492     -2.55562852918893
  H          -3.90997081828010      0.01761218876134     -3.94170676108833
  H          -3.80525634452376      1.76134208652248     -4.21497039031544
  H           1.62543812952338      1.02852632197312      0.22414993120279
