19
Coordinates from ORCA-job NEB E -44.398107619870
  C           1.10473520112960      0.61642221614448      0.19375759340385
  C           0.45682577961194      1.44421128787873      1.12292089650241
  N           1.03220912594643      1.04208093006634     -1.20717623056541
  H           2.10381423868028      0.26497423434040      0.43644704808956
  Br          1.18869848572699      1.43414463476127      2.92334436890275
  C          -0.08311324822555     -0.89151055556060      0.15697205937698
  C          -1.31365623917188     -0.28953944945692     -0.11321560187371
  C          -1.82103038263500      0.65339916826800      0.83769722567979
  O          -0.74498451593064      1.82921199231324      0.98841110438374
  C           0.48136607257700     -1.88383210573183     -0.84451415451112
  H           0.12222108588234     -1.21855461070502      1.17327622019875
  H          -1.66394959469561     -0.23828733141032     -1.13271902878722
  H          -1.87421396045322      0.30964964793984      1.86980379141335
  H          -2.71009867474260      1.19274017147454      0.53298995125365
  O           2.05725539066041      0.92235469978783     -1.83427155043129
  O          -0.01174948575243      1.48374518039006     -1.60977855453497
  F           0.01170967777479     -3.12091626186348     -0.54890452339623
  F           0.08178246928388     -1.60985479094727     -2.10207686071437
  H           1.58217857433327     -1.94043905768928     -0.84296375439051
