18
Coordinates from ORCA-job NEB E -30.032254047840
  C           0.60100379749696     -0.40828954945745      1.06937293826936
  C          -0.78522930021407     -0.27830582029725      0.90042753874583
  Cl          1.47294779174519      0.81682877884949      1.96762266567168
  H           1.01709033538219     -1.38928837512950      1.26590214402019
  C          -1.57755903216920     -1.53242248548497      0.61383752275083
  C           1.19123857816308      0.00452621431918     -0.77771501013804
  C           0.61466847685694      1.27358349117511     -0.94688360419974
  C          -0.77694611122882      1.39941136780434     -0.95194554717000
  O          -1.28812137641556      0.86867176387888      0.64352451704934
  O           2.53319547089639     -0.17112801751607     -0.73613423039626
  H           0.72629746313479     -0.84731942378283     -1.26523280106931
  H           1.20756036045825      2.12924254358338     -0.65149565626544
  H          -1.35391855135331      0.67099876104262     -1.50764265596384
  H          -1.19608007570183      2.39407717559536     -0.96179882625989
  H          -1.01768298897748     -2.21460437824113     -0.02324520875876
  H          -2.51499398440482     -1.26543270094521      0.13316884849675
  H          -1.80136174379870     -2.04767546093907      1.54617667496348
  H           2.94789089012997      0.59712611554511     -0.31793930974617
