18
Coordinates from ORCA-job NEB_product E -30.067254937750
  C           3.13466492255032     -1.09220818079396     -2.10998038190003
  C           1.64323215789634     -1.34504859447432     -2.31765233429588
  Cl          3.54336814075750     -0.66771489641890     -0.43365794473397
  H           3.67282597682312     -2.02215616131102     -2.32606947057769
  C           0.81785992026541     -1.56653204553992     -1.09000376866958
  C           3.65521053534871     -0.01808128003259     -3.08198159778799
  C           3.16943199817733      1.34874974684373     -2.68157178467944
  C           2.11669453318166      1.93432054695964     -3.21851411490447
  O           1.19467314573003     -1.37732001894096     -3.43486291122714
  O           5.06255923183949     -0.11157903052272     -3.08894442306146
  H           3.24869663306791     -0.28061431669452     -4.07282979575873
  H           3.74723909050673      1.82416064469155     -1.90061332097896
  H           1.53821731474959      1.45534246053764     -3.99124316071565
  H           1.78527257056990      2.90732081711364     -2.89907080172333
  H           1.27400363666925     -2.32542323630861     -0.45893875974679
  H          -0.18854972576555     -1.86246378774449     -1.37350221250821
  H           0.78041880553481     -0.64143166330114     -0.51733745256661
  H           5.42128111209744      0.62997899593695     -3.58742576416404
