18
Coordinates from ORCA-job NEB_reactant E -30.067054667060
  C           2.07653567917169     -0.22757816542066     -0.29884359854606
  C           1.53708877055359     -0.70988845355331     -1.41767781521412
  Cl          2.90026760427634      1.28105663456071     -0.04396753322728
  H           2.02684619384891     -0.80421414471529      0.60848330450351
  C           0.85379962747170     -2.05246157923787     -1.37812292730623
  C           4.19244222295134      0.57903529317304     -4.42629969361280
  C           3.61561728993812      0.72662863611963     -3.24186419959879
  C           2.14842799745206      0.96849213512490     -3.07207858477951
  O           1.44832898779723     -0.20598942365541     -2.66769767606817
  O           5.50475260779514      0.34805219084125     -4.64518014960093
  H           3.64590230957489      0.64970920255267     -5.35594494087755
  H           4.19890468607631      0.63876275030591     -2.33529638701564
  H           1.69586145080936      1.22055896454780     -4.03451344738384
  H           1.96572666828866      1.78322003897990     -2.36596463201443
  H           1.37596141699986     -2.74202928739557     -2.03831884743445
  H          -0.16388723434485     -1.94583337633652     -1.74677626894451
  H           0.83454102134527     -2.45861006220737     -0.37322558779514
  H           5.97278269999436      0.28898864631619     -3.80191101508408
