22
Coordinates from ORCA-job NEB E -59.673599097450
  C          -0.34911526241216      0.00681556126244     -0.20337526918716
  C           1.96559523011085      2.50704333976632      0.39847303722980
  C          -1.10745103918188      0.13807028207827     -1.43115499814826
  H           1.23402200712144      1.67847317193127      0.41659118248513
  C           2.83558568534562      2.49530837611941     -0.86095790174899
  C          -0.69974572568275     -1.03253036857149      0.84275407066520
  C          -1.82701761009046     -1.99044922196140      0.55291984397094
  C          -3.06375454136366     -1.73606823817912      0.93362759958538
  O           2.11059356337189      3.28837769029301      1.27779789070402
  N           0.46220024621853     -1.87148636764247      1.25595270508864
  H          -0.97533594012292     -0.44089176351046      1.72729439767455
  H          -1.56880424036193     -2.88446690342635      0.00327100390237
  H          -3.31779605071408     -0.84195398502493      1.47658685496806
  H          -3.87228782733322     -2.40381158146771      0.70330522442211
  Cl          0.58959827055137     -0.63254198132753     -1.71170429507724
  Cl         -2.38814880746607     -0.87381030980257     -2.12408076417448
  Cl         -1.24334387659321      1.73233013135471     -2.08980023970856
  Cl          3.91235447228429      3.88244895569883     -0.94858238335874
  Cl          3.76398439001271      0.96768613960317     -0.74389573166386
  Cl          1.81598346355500      2.43775220780607     -2.30778474842029
  O           0.54912564857235     -2.09044766394951      2.43865298300565
  O           1.17375794417828     -2.33584747104998      0.39410953778572
