22
Coordinates from ORCA-job NEB_product E -59.808948710700
  C           1.68681103796410     -1.15258558495959      1.13825254059002
  C           3.03817096302405     -0.69785912987889      1.75111534909164
  C           1.95990952647397     -1.81681283688235     -0.21640356720598
  H           1.09856026050601     -0.25017009375624      0.94179644034933
  C           2.94987468951690      0.57348052748606      2.62362973550391
  C           0.89279865730764     -2.04132510453688      2.12636436378488
  C          -0.09057640928497     -3.02477667792833      1.56849695189596
  C          -1.39461336587207     -2.88190593997823      1.71708444269980
  O           4.10474771481331     -1.06996660982772      1.36314769302527
  N           1.86623057363077     -2.75137573814449      3.00557291513301
  H           0.36500229745921     -1.36165642234642      2.80933153095417
  H           0.32671091507984     -3.89631189045421      1.08874070191273
  H          -1.82715463802722     -2.02563486915353      2.20830633301356
  H          -2.08339781596258     -3.61217841878918      1.33289091973777
  Cl          2.78891757449201     -3.37020254226454     -0.00989842190856
  Cl          0.43431675450144     -2.06406528664139     -1.10044237253321
  Cl          2.95672883312771     -0.74127634099348     -1.22962759431220
  Cl          1.52385085950219      0.68374867126530      3.65398307989777
  Cl          4.40064992858987      0.73366767545007      3.60255558076602
  Cl          2.87377544271280      1.89311734626902      1.41415645911305
  O           1.64793862860727     -3.88413475604713      3.31494821253747
  O           2.79794757183780     -2.07417597788787      3.39149870595359
