29
Coordinates from ORCA-job P E -48.101866439050
  C          -1.28054768142531      0.32975934766095     -2.38772431558762
  C          -0.02893843861613     -1.78415749851951     -1.12884903024110
  C          -1.35121409019999     -2.01804879219544     -1.79032261548396
  C          -1.94347401062501     -1.01542850160495     -2.41719944027561
  C          -0.87935336966379      0.63253870656632     -0.92953842092633
  C          -0.03917148720996     -0.48912958050724     -0.28807366498249
  H          -1.76763374430284     -3.01222021946887     -1.75946499124938
  H          -2.88359529050560     -1.12113197471282     -2.93433044063564
  C          -2.15307477589778      1.43628258928046     -2.91606138303837
  H           0.24624500215060     -2.62861392014458     -0.49872217371757
  H          -0.36325994188153      0.28251791516361     -2.98690943578134
  H           0.73293605614547     -1.68455879408086     -1.90815372937250
  H          -1.79333976806949      0.76612888817333     -0.35027180737251
  H          -0.46153760322186     -0.72743034450659      0.69302700266484
  H          -0.33656230909563      1.57743917953798     -0.90301070687430
  C           1.38885455245549     -0.01790005688239     -0.02644971785689
  C          -3.46288658492610      1.57535761528939     -2.47261243029916
  C          -4.26192370464599      2.60001289659835     -2.94610820089053
  C          -3.76026997700408      3.50330039875918     -3.86783566644997
  C          -2.45586418675676      3.37570764750276     -4.31212538744199
  C          -1.65851300787790      2.34872125112216     -3.83791968317321
  H          -3.86092900359013      0.87368109205268     -1.75322098653445
  H          -5.27909445279973      2.69494978596012     -2.59460559342941
  H          -4.38407253534082      4.30348331634562     -4.23788288539328
  H          -2.05780067148263      4.07729314576067     -5.03060253555277
  H          -0.64047409021657      2.25371045199126     -4.18889501577716
  Cl          2.18999779679756      0.50890253504383     -1.52041068831331
  Cl          1.39796252489983      1.35418864219145      1.11497997000212
  Cl          2.37197479290669     -1.31270572237688      0.69947397398388
