29
Coordinates from ORCA-job R E -48.013929082020
  C          -1.50736507381577     -0.51815687765558     -2.92690169905984
  C          -0.39303616054044     -3.20325827615668     -2.11036796032359
  C          -1.60163519569928     -2.72852552089963     -1.82103638959295
  C          -2.05785886972112     -1.37428166950674     -2.05400151411862
  C          -1.72688476702358      1.14727006738948      0.52165754639737
  C          -0.54182295608450      0.69902186652669      0.15247545640564
  H          -2.32076996833926     -3.38091738244438     -1.34019458654117
  H          -2.91651861828862     -1.07337485412483     -1.46943029382223
  C          -1.89338750190650      0.86064861860420     -3.15507915077087
  H          -0.12366192161729     -4.22426417956235     -1.90232064753157
  H          -0.67775040208399     -0.86003505431532     -3.53165252759692
  H           0.37337926268030     -2.58861611367662     -2.55081699064233
  H          -2.44634850080695      0.48706878489534      0.97231573359450
  H          -0.25568415881559     -0.33387095935458      0.29078420105721
  H          -2.02060426987639      2.17392266549485      0.38946463232093
  C           0.53764192835476      1.53613663543840     -0.43713718190886
  C          -2.96315291624297      1.47823520449732     -2.50232848762458
  C          -3.25934020054033      2.80712319724698     -2.73128725365880
  C          -2.49881823749685      3.55370769463103     -3.61685433853787
  C          -1.44033255630563      2.95516395585548     -4.28009678293225
  C          -1.14372427284262      1.62606977234925     -4.05351805061569
  H          -3.57080776091298      0.91406769808001     -1.81159244072494
  H          -4.08938411197107      3.26786102693855     -2.21472891360338
  H          -2.73042974203577      4.59436176827873     -3.78876068135021
  H          -0.84287813251967      3.52947658286661     -4.97319149092866
  H          -0.31235530084127      1.16743808257590     -4.57022077683044
  Cl         -0.02780263376671      3.09565511686222     -1.05518151143366
  Cl          1.77172666828619      1.84636244109580      0.82973419486731
  Cl          1.33358637077393      0.66550970806986     -1.76400209449352
