29
Coordinates from ORCA-job TS E -47.999762144890
  C          -0.18395990647543     -0.50373311610965     -0.58761613583651
  C           1.20850142763146     -2.74064763501307      0.57832509609835
  C          -0.12526410283237     -2.75444164633972      0.33526283073111
  C          -0.81147652283350     -1.67667314066596     -0.25737213085251
  C           0.40265285567513      0.06539748935652      1.48843920100987
  C           1.26921056769064     -0.84685985277496      2.01058958670401
  H          -0.72801078809634     -3.54649976948371      0.75987451971202
  H          -1.89059167434824     -1.73112537097926     -0.28549235950678
  C          -0.87237770599347      0.68252288202029     -1.08333919503090
  H           1.66196196819056     -3.53736958451318      1.14351082977855
  H           0.87244337520722     -0.52924310959787     -0.80946615689626
  H           1.88393738379405     -2.13950870432771     -0.00034567725460
  H          -0.62494053168590      0.06144699451255      1.80096321162675
  H           0.94677037867251     -1.57129877511484      2.73976547903189
  H           0.76991564251451      0.97948588775096      1.05690082179208
  C           2.73369592304353     -0.59085174808305      1.99766955821016
  C          -2.21119656564620      0.95149460974537     -0.79560269516882
  C          -2.82203774461506      2.09161568428194     -1.28090900251560
  C          -2.10925553300255      2.99060953204168     -2.05743037716372
  C          -0.77539914863089      2.74491711358315     -2.33963342952679
  C          -0.16244478475506      1.60719039268205     -1.85224745037755
  H          -2.77674331300954      0.26926409499708     -0.17874612913886
  H          -3.85969798427352      2.28397352873397     -1.04961467323325
  H          -2.58936044793810      3.88101661453674     -2.43517616834223
  H          -0.21182477864838      3.44544957374290     -2.93835609486458
  H           0.87921051613052      1.42059158982429     -2.07293927115679
  Cl          3.31590204513819      0.04656786844151      0.44667112734447
  Cl          3.11800670339102      0.66781993180096      3.24833103220122
  Cl          3.69237274570523     -2.02111133504900      2.41798365262530
