24
Coordinates from ORCA-job P E -41.166181528600
  C          -1.32155000868102      0.34968097229728     -2.35231694725644
  C          -0.14702542306140     -1.74144579890460     -1.00654076702425
  C          -1.51054057870445     -1.94105724443434     -1.59681521440146
  C          -2.06801881804200     -0.94617543029664     -2.26445217276032
  C          -0.85032185699984      0.72941942439636     -0.93541268611865
  C          -0.06310507066826     -0.40341852547982     -0.24394430556644
  H          -1.98220143791501     -2.90176410062740     -1.47398556646789
  H          -3.04237125108859     -0.99866452780726     -2.72091837555065
  C          -2.16250009568895      1.47749943162352     -2.94319077716270
  H           0.10645740990569     -2.56549151278595     -0.33915906866861
  H          -0.44084601482406      0.22310264266493     -2.99528978338741
  H           0.58359741601563     -1.73514502029743     -1.82426870851537
  H          -1.73587630619156      0.95812239621815     -0.33950037883025
  H          -0.48719272786275     -0.56487658227224      0.75492197513713
  H          -0.24745006372248      1.63756223642187     -0.98574909740112
  C           1.38608593322194      0.00383657189153     -0.02536795969145
  O          -3.33244428633798      1.34819874247254     -3.18934827209813
  C          -1.41780064071881      2.76591707291391     -3.17942175124858
  H          -0.37435968569461      2.59256575872123     -3.42636831063895
  H          -1.46785142739587      3.36757140975595     -2.27237275679659
  H          -1.90280822523468      3.32735448353039     -3.97380467596765
  Br          1.49876076995749      1.57439933073676      1.15214338894111
  Br          2.42531548724329     -1.41717239213659      0.82915284107350
  Br          2.27554690248828      0.46352066139785     -1.70156062959882
