24
Coordinates from ORCA-job TS E -41.063213350510
  C          -0.73126644074557      0.13605152137680     -0.93128702389041
  C           0.59409435893510     -2.23945338700209      0.01345783593212
  C          -0.73411034922106     -2.20627329195663     -0.24912743859972
  C          -1.38343665915522     -1.05535249601053     -0.73660120860392
  C          -0.23989269060686      0.52999780214977      1.16786520279751
  C           0.61269373041798     -0.41946776970086      1.64734053981547
  H          -1.35797934914112     -3.02510041553969      0.08184436781187
  H          -2.46491644418044     -1.04342189926213     -0.76423866790461
  C          -1.51031485043644      1.34384486155980     -1.29658341181925
  H           1.02859760294919     -3.09194376583188      0.50872292321099
  H           0.31776906724340      0.15791083638966     -1.18280026739486
  H           1.28492470693561     -1.58125396844136     -0.48171516333020
  H          -1.27894931853025      0.49937915827069      1.44050196256429
  H           0.25501414352952     -1.22525092629871      2.26939228886046
  H           0.13841588327618      1.49240541439795      0.86293339615238
  C           2.06439273002496     -0.16149605361587      1.73759508502351
  O          -2.68582739537194      1.45608258361816     -1.03521949112721
  C          -0.71600052168921      2.40667168829375     -2.00967905144483
  H           0.18423312348750      2.65004528999159     -1.44938671341227
  H          -1.31934130046025      3.29876749004911     -2.15118790560697
  H          -0.40684561804873      2.02412824943408     -2.98113234063357
  Br          2.42272004963771      1.09378518398515      3.28407869564907
  Br          3.12218619519855     -1.75614418177095      2.09413105930039
  Br          2.80383934595140      0.71608807591419      0.16109532664976
