24
Coordinates from ORCA-job NEB E -36.989581733050
  C           0.61645299642375     -0.24828548842569     -0.13085009352835
  C          -0.55536547794694     -0.80251574270705     -0.66655597140653
  C           0.86907217601490     -0.36262822916275      1.35384853851074
  H           1.51528205376598     -0.36258663624581     -0.73023493428016
  C          -0.64395430132077     -1.16336153498774     -2.13530380697201
  C           0.10511922057293      1.60790809507238     -0.38633840767679
  C          -1.09601706580210      1.71536596386491      0.33181620831574
  C          -2.19504722238110      0.94244019664364     -0.11851106442369
  O          -1.68664486280740     -0.62569356182609     -0.04884697541776
  C           1.23715120453645      2.33307804932794      0.07926313861785
  H           0.05364824886708      1.58913075722524     -1.47262011264577
  H          -1.04742348260738      1.99823613485941      1.37288567418530
  H          -2.44256469022065      1.00759036700807     -1.17552644271221
  H          -3.07382838357836      0.92493956904643      0.51313448435663
  C           1.50752765981488     -1.71646207956168      1.65779150639615
  H          -0.07654722056962     -0.27953620548884      1.89175281552772
  H           1.53707581055555      0.43326894866580      1.68739532890133
  H           0.84417471254587     -2.52446691341235      1.35780529690458
  H           1.70294189176159     -1.80445074047365      2.72340692874379
  H           2.44922058130613     -1.82533295120838      1.12453072952425
  F           0.56857147761053     -1.07681443397737     -2.76501718541392
  H          -1.33299459162067     -0.48687972794077     -2.66211496417955
  H          -1.00267370125854     -2.19217214466032     -2.25389979520601
  N           2.14682296633790      2.91922830836467      0.45218910387865
