24
Coordinates from ORCA-job NEB_product E -37.022934509980
  C           2.23016674148492      1.60682359393944     -0.60623877194191
  C           1.17006662992349      1.37966764983515     -1.68084264772803
  C           2.12018397882476      0.61117271952950      0.55774723122344
  H           3.19605564770497      1.44312083053817     -1.10532995747351
  C           0.97890489057799     -0.07253249035518     -2.10407118668348
  C           2.16928626399654      3.09324278129348     -0.16233934034886
  C           1.11437400536458      3.35634478025372      0.88390618957613
  C          -0.08036905388636      3.83350327295149      0.59323916372695
  O           0.55104614521653      2.26869303528188     -2.19519740041011
  C           3.45774614028771      3.54264425004665      0.30596602524557
  H           1.92501898740256      3.68156874292696     -1.05723521263987
  H           1.39251849018306      3.13687322179968      1.90591053562087
  H          -0.37064475345018      4.05910446733875     -0.41944965286227
  H          -0.82010544304699      4.00538159007958      1.35647403509766
  C           3.27868853423964      0.72383169631198      1.54351047849776
  H           2.11761022640765     -0.40395794213654      0.15797181776389
  H           1.17308663516970      0.77015863994035      1.07760275724684
  H           4.22973072254909      0.58661767754598      1.03389598533103
  H           3.18559297410755     -0.04357535645027      2.30830481336360
  H           3.29892173005883      1.69159780790757      2.03547610653585
  F           0.28237457697838     -0.14072516942141     -3.27549008065826
  H           0.38949189028877     -0.60817601301174     -1.35043105155836
  H           1.93853631385837     -0.57493033707384     -2.26488443476759
  N           4.47681772575844      3.90685055092865      0.67540459784264
