24
Coordinates from ORCA-job NEB_reactant E -37.014564818300
  C           1.71464288603563      0.16058436190793     -0.16410924904932
  C           1.13517811979819      0.58949937494191     -1.27923692946616
  C           2.17188635571253      0.89770904018333      1.05974241952029
  H           1.91830028075541     -0.90066444261544     -0.13332463525940
  C           0.82393790206585     -0.34672073369326     -2.42757062587992
  C           1.62802609894160      4.63541394568797      0.54839921586697
  C           1.59424100165489      3.73488528604101     -0.43392619205014
  C           0.42732727176114      2.83245967981344     -0.69913960019591
  O           0.70150426464561      1.83881510564501     -1.66007471703545
  C           2.72860769308821      5.48912433973231      0.75044247327851
  H           0.81075597746678      4.74959755643688      1.24931327012366
  H           2.41932779952663      3.64322827215645     -1.12797104717332
  H          -0.37960695657776      3.43232539081635     -1.14425587474130
  H           0.04566373260694      2.38971343677535      0.22832252470936
  C           3.42899763396402      0.24822984634831      1.63314602128693
  H           1.38522829961373      0.87218078636404      1.82259750111168
  H           2.38883651799696      1.94224875809442      0.83327768275054
  H           3.23311374422740     -0.78408628421164      1.91362699505732
  H           3.76474477899164      0.78887322436133      2.51503208873187
  H           4.22939329582498      0.25850450631859      0.89717433003102
  F           1.41212113259308     -1.57072107835125     -2.27712517062983
  H           1.19231374896889      0.08489743377437     -3.36439623610982
  H          -0.25693254202941     -0.51486308922506     -2.50607860789332
  N           3.62339096236706      6.18376528269767      0.92843436301576
