20
Coordinates from ORCA-job NEB E -36.074338114490
  C           0.42765653925141      0.40312496625923      0.92151807650559
  C          -0.88810788485057     -0.12126262703613      1.10206490346891
  N           0.62328555629230      1.77504573732399      0.67104636172171
  H           1.19682152281262     -0.03833427816435      1.54983582335373
  N          -0.95080177318096     -1.46409554623003      1.70812305446878
  C           0.81022401421424     -0.37593226825500     -0.77574614447234
  C          -0.27849199454261      0.12814862417670     -1.55154167725395
  C          -1.55541663930345     -0.34350416088668     -1.39664956235133
  O          -1.86672705864619      0.25105652417619      0.42974161329193
  N           2.09001491706631      0.04829098939874     -1.10246897459431
  H           0.77949400350499     -1.43173796147593     -0.51970190919002
  H          -0.12261310167909      1.08561637333219     -2.02885699951689
  H          -1.74100663320939     -1.36611827305016     -1.10658194328271
  H          -2.37126516837735      0.14275785591611     -1.90397465029237
  H           1.06690091230203      2.26439498470811      1.43552764931459
  H          -0.24335467804268      2.22669717949175      0.40194491595182
  O          -2.00315193116348     -2.05694019053999      1.63513495750282
  O           0.05177788202218     -1.87860670023336      2.26793861817511
  H           2.15759220009769      1.04735058162529     -1.24466536138917
  H           2.81716931543200     -0.29595181053669     -0.49268875141191
