20
Coordinates from ORCA-job NEB_product E -36.083530014700
  C           2.98206890700781     -0.78087556967691     -1.10461594724304
  C           1.67203340531479     -1.19803589647990     -0.48589819986946
  N           3.13270219847548      0.65004146784686     -1.18930617254539
  H           3.79934932904603     -1.19586813477001     -0.50167617070388
  N           1.62780139498147     -2.68547209679429     -0.17413806508061
  C           3.10451923733952     -1.42243196366496     -2.52427504636958
  C           2.05241751124317     -0.84328990806910     -3.43983580000041
  C           0.88544999905118     -1.41429792887282     -3.67174756319862
  O           0.72961103202555     -0.51536482389203     -0.24264138783324
  N           4.46956382479779     -1.21587598524187     -2.95925739144267
  H           2.94851339425174     -2.50478458776894     -2.43272477257109
  H           2.32251984236635      0.09014038623191     -3.91667243023184
  H           0.60206052530273     -2.34479458488525     -3.20679357217979
  H           0.15979394039675     -0.97343125380149     -4.33338762902237
  H           3.22144086066237      1.06311181176996     -0.26846253251501
  H           2.32700469465813      1.06633904661999     -1.64501545654437
  O           0.76450454758286     -3.32365580513298     -0.72200770210983
  O           2.49137887603901     -3.10158042069379      0.56037767742654
  H           4.68528800542382     -0.22448158785501     -2.94278181524631
  H           4.59867847403346     -1.56399216486938     -3.90204002271902
