22
Coordinates from ORCA-job P E -34.959298819150
  C          -1.01860808463103      0.72645164583074     -1.97614657699582
  C          -0.69353011264976     -1.77372604637302     -0.41438971911262
  C          -1.01129955628514     -1.74079913845370     -1.87541686317965
  C          -1.14759905394925     -0.62902689637701     -2.58027305605602
  C          -1.12631501183912      0.69659936727914     -0.46038383206868
  C          -0.21931322392415     -0.41015877782622      0.08797969921516
  H          -1.11592393046091     -2.70086669534978     -2.35911092489823
  H          -1.35055605036403     -0.66280796951177     -3.64092004589918
  Br         -2.44002209323518      1.91018839660466     -2.69229664589482
  H          -1.58171196982985     -2.08858327235017      0.14172338060112
  H          -0.09259134215981      1.20917270869396     -2.30356394332419
  H           0.08649418915110     -2.51825127950739     -0.23998723815555
  H          -2.15731640064532      0.47646714245156     -0.17388319186972
  H          -0.24369579764435     -0.37801689644476      1.18259683029880
  H          -0.84874193139581      1.66393315731029     -0.03884986495898
  C           1.22644131992205     -0.17025304143322     -0.32142994859029
  O           1.94282697672820     -0.97372684901936     -0.85452348032037
  O           1.61987556899293      1.06612218105136      0.00769905272914
  C           2.96481994386408      1.40137565946939     -0.30880355235204
  H           3.11970367841981      2.41306794614704      0.05663636278599
  H           3.12405377263821      1.35415513459035     -1.38799780705120
  H           3.65229910929734      0.70651352321793      0.17689136509716
