22
Coordinates from ORCA-job TS E -34.851471972980
  C          -1.41299323506867      0.58282303286934     -1.57044036478953
  C          -0.02560778628017     -1.70862115207837     -0.55626594845925
  C          -1.29952780144023     -1.76785882630829     -1.00767918717130
  C          -1.97604144132584     -0.65421064554542     -1.55655105646902
  C          -1.20753188644841      0.90924207289870      0.64096131338806
  C          -0.47227445350539     -0.10428388303323      1.17214943676022
  H          -1.89436427410834     -2.64823747496191     -0.80825127089190
  H          -3.02938552075915     -0.75762389379123     -1.77605821858810
  Br         -2.40437897303858      2.07600135010822     -2.18567339934847
  H           0.41265889903438     -2.54133987039379     -0.03281205323486
  H          -0.35172030730442      0.75747170611427     -1.60918314749699
  H           0.66423589808423     -0.96313884891139     -0.90739291685779
  H          -2.27625824616361      0.92629411443928      0.77465492382551
  H          -0.94230365414962     -0.92038126608702      1.69802722019400
  H          -0.73412385714077      1.84744079956531      0.40623394640581
  C           0.98171628138305     -0.00673856872712      1.36778099878643
  O           1.62064614938702     -0.70136700018557      2.11898732393515
  O           1.54120735050096      0.96242912574580      0.61216024739069
  C           2.93919428664923      1.14048585426638      0.77732676883349
  H           3.22842615266631      1.93410761304033      0.09284993971141
  H           3.47140400270423      0.21613238215595      0.54178545330015
  H           3.16702241632379      1.42137337881976      1.80738999077628
