21
Coordinates from ORCA-job NEB_product E -32.502460419730
  C           2.41567951572217     -0.15003144140075     -1.26491465512872
  C           1.13994932293253     -0.92160309216735     -1.30570362747045
  C           2.24287504149122      1.04139147585904     -0.31134086917989
  H           3.22469772604436     -0.79402596636582     -0.90422966217984
  I           1.39271726380736     -2.95817495636148     -2.06555229825736
  C           2.80130586723899      0.24180881719661     -2.71967680435273
  C           1.92109741464127      1.34374437651554     -3.24555159488645
  C           0.80787959284421      1.13120437447365     -3.92075512647628
  O           0.05708920462996     -0.57689747041513     -0.99279821929490
  O           4.16462928157533      0.60063789124391     -2.71218683962216
  H           2.66619087887562     -0.65432821105813     -3.34960903319080
  H           2.26994305947755      2.34554631535503     -3.03596035552799
  H           0.45594860354753      0.13629166113522     -4.14183900280331
  H           0.19522945983909      1.94121836838763     -4.27594496654604
  C           3.56759717040971      1.70638203163098      0.03557039424275
  H           1.77508364516822      0.67453980163377      0.60608060420640
  H           1.55806486531276      1.76351116160707     -0.75852358008491
  H           4.22755895002115      1.00085496993529      0.53482889670527
  H           3.39464563342528      2.54807007496854      0.70166750476387
  H           4.06928504999891      2.06103834524542     -0.85881373908010
  H           4.43863245299679      0.80202147258096     -3.61294702583636
