21
Coordinates from ORCA-job NEB_reactant E -32.492240183790
  C           3.02785178269300      0.45766930017756     -0.24294693928545
  C           2.60803721302281     -0.15418055562887     -1.33798112799673
  C           2.35499471087018      1.65903364811348      0.34610065164471
  H           3.87985737944600      0.07152671088022      0.29473062577352
  I           3.67866220293582     -1.90299301582302     -2.01285273039616
  C           1.85596468315961     -0.30211060277806     -5.27384081642826
  C           2.47486161916780      0.38334375137509     -4.31912052664899
  C           1.73775950548857      1.03640849882272     -3.19458606099880
  O           1.53157417333847      0.16879790265735     -2.06474208480239
  O           2.44265621967100     -0.94386593557929     -6.29825180899795
  H           0.77910924394316     -0.39059183268785     -5.31382586819268
  H           3.55499148837507      0.44745394448853     -4.30504315389605
  H           0.72332666836362      1.30197961654282     -3.49917193642337
  H           2.26804472838659      1.93530998574853     -2.85624945328986
  C           1.96630562952581      1.40118389932637      1.80041428612572
  H           1.46639215455407      1.90962190078382     -0.23543176448882
  H           3.04688822089837      2.50628072477371      0.30501504590985
  H           1.26939526601729      0.56881401047574      1.86324688372342
  H           1.49187862761751      2.28274047002508      2.22455915384037
  H           2.84539114277698      1.16125447450194      2.39435448779467
  H           3.40465733974825     -0.90367689619588     -6.21257686296674
