22
Coordinates from ORCA-job P E -39.192613095190
  C          -1.38402275556827      0.33741232961909     -2.33900159994120
  C          -0.12714963747847     -1.71494304945170     -1.04673139725371
  C          -1.53702118569261     -1.92291045949645     -1.48945334436432
  C          -2.15647197628277     -0.93011349973922     -2.10683829268503
  C          -0.71243298922112      0.78277399098860     -1.02615374419397
  C          -0.01109574572824     -0.37713817508551     -0.29281845406293
  H          -2.02417856864864     -2.86283298566868     -1.29014429740021
  H          -3.17795174782605     -0.99938813710357     -2.44502652177222
  C          -2.26091638337987      1.42551847798946     -2.92649191458659
  H           0.21417445784785     -2.52345521257949     -0.40217348975776
  H          -0.58987548000501      0.13693963653818     -3.07470670485898
  H           0.52822573080250     -1.68709642115527     -1.92402521648155
  H          -1.47608245759667      1.20775362728100     -0.37175509283792
  H          -0.48111415609112     -0.51426750916688      0.68568169053583
  H           0.01343873346646      1.56928773185061     -1.24431231553281
  C           1.45841904417129     -0.03542326711067     -0.05179988744720
  Br         -3.77206810479572      1.85177751508820     -1.76576366867786
  Br         -1.25414920305976      3.07618336631704     -3.23695354323757
  Br         -2.97772743180233      0.85745655008548     -4.66111616496322
  F           2.05747827906379     -1.01651197334819      0.69689229704723
  H           1.56503604994332      0.89737765312277      0.51173208484196
  H           2.01708552788141      0.02856981102523     -0.99221042236996
