22
Coordinates from ORCA-job R E -39.100392550330
  C          -1.31236726458540     -0.31641298486561     -2.83993178819819
  C          -0.27313085944494     -3.09531452772023     -2.37422386018323
  C          -1.24290307775168     -2.49947906592948     -1.68665163081933
  C          -1.80488284659586     -1.19360964045932     -1.96385699523026
  C          -0.82165804997402      2.10745962534084      0.50546673645682
  C          -0.25283195596337      0.91730870949082      0.51880356046439
  H          -1.68166162724904     -3.00873764337865     -0.83945849626059
  H          -2.68065300822135     -0.93314608483818     -1.38259169448947
  C          -1.87959083610814      1.00129258357552     -3.15441589845454
  H           0.08814390653777     -4.06861957384181     -2.09262605544688
  H          -0.42831397285366     -0.54872681103582     -3.41842918241478
  H           0.19372897353425     -2.64651757058680     -3.23356933837533
  H          -1.77892893774989      2.28085553879267      0.96529324676652
  H          -0.73584519001826      0.06467771845009      0.97741641918461
  H          -0.34490508143715      2.95789774202410      0.04636549759614
  C           1.08451711626654      0.61865974785960     -0.07832241848569
  Br         -3.30768201223223      1.59354536487468     -1.98766576597528
  Br         -0.48100685842582      2.37890406622625     -3.12052526879952
  Br         -2.60948912993193      0.97655090150737     -5.01588788478777
  F           1.04070955127363     -0.56744454183127     -0.77959374813542
  H           1.83950452528938      0.48047317185171      0.70660612464996
  H           1.41558663564118      1.39729327449352     -0.77250155906214
