21
Coordinates from ORCA-job NEB E -49.717984446960
  C           0.62925257521455     -1.09647637546601      0.06077400454982
  C          -0.68905615016146     -1.19888335317774      0.59416808014413
  O           1.66653123861898     -1.07366686356885      0.92463838145225
  H           0.88381372859773     -1.65901224309361     -0.83147392796200
  C          -1.81670833560335     -1.67689071294233     -0.31095962039070
  C           0.46504502560593      0.71872688188433     -0.57622524734065
  C           0.18232435538943      1.41737479996199      0.61480054346735
  C          -1.04878940988268      1.20646722840758      1.24723999140617
  O          -0.94740526427485     -0.49851554588150      1.63343081487607
  C           1.73869394196932      1.04640277361136     -1.31038207468295
  H          -0.35238662188103      0.59610871995861     -1.28034136732861
  H           1.01605939373106      1.78309513302384      1.19759617819963
  H          -1.94328440423889      1.15777957754062      0.64043152828264
  H          -1.20228903286997      1.63721560374643      2.22573167085391
  H           1.34632471481060     -0.77202586155350      1.79084877612271
  F          -2.86275557171683     -2.10593545783386      0.42062282147674
  F          -2.30016582422229     -0.66419223312844     -1.09666612117610
  H          -1.50368429222692     -2.48856958407702     -0.98401895223572
  Cl          1.51628810577594      2.65339618199478     -2.08317533478011
  Cl          3.15985831822245      1.13750762442196     -0.26456472800172
  Cl          2.06233350914228     -0.11990629382864     -2.61247541693285
