21
Coordinates from ORCA-job NEB_product E -49.746522429310
  C           2.24918911685086      1.54583796563950     -1.78703658033014
  C           0.83795045538086      1.26107775328882     -2.31745874503415
  O           2.32318905611002      0.99495362929271     -0.49366720728679
  H           3.00768757093653      1.10303772357851     -2.44810063934296
  C           0.75657622573020      0.00410690867216     -3.21901357520637
  C           2.47272271207684      3.06587625705908     -1.66945657870292
  C           3.60836795820637      3.36542767571990     -0.73116571702376
  C           3.48729351879112      4.15445176965244      0.31789497155806
  O          -0.15557443003519      1.80797496637363     -1.93496661622170
  C           2.73922730486076      3.66581429805166     -3.04767977843413
  H           1.55082298224844      3.50849081063293     -1.27639420707924
  H           4.54499269275633      2.88271103122813     -0.96604507694658
  H           2.55570736660145      4.63477985335200      0.56575322971165
  H           4.31723658588647      4.34734160649480      0.97446686123466
  H           2.24257733403088      0.03412589643587     -0.54311852513734
  F           1.65579469329918      0.05015512997618     -4.22211486408733
  F           1.09764547684476     -1.06792075017652     -2.45351760334523
  H          -0.24626300935177     -0.16224070741477     -3.63516847898309
  Cl          1.45012881013844      3.19556567010886     -4.19339942401517
  Cl          2.77741418303091      5.43370216081524     -2.93973171158807
  Cl          4.28321339560653      3.10893035121887     -3.72537973373940
