21
Coordinates from ORCA-job NEB_reactant E -49.748967365450
  C           2.45086926954075      0.64568841123811     -1.08210515617523
  C           1.26975215245657      1.18159540087034     -1.40346100203734
  O           3.37603574355431      1.22312887026527     -0.25809514391758
  H           2.70058483993356     -0.32468241508498     -1.48779126521281
  C           0.33904563179292      0.42589830012820     -2.31964838590463
  C           2.81737658485709      3.61520263702072     -2.48718054084971
  C           2.70075547974248      3.79447230986360     -1.17988949843724
  C           1.52810756531109      3.31809874056605     -0.37962690318197
  O           0.71849956822976      2.37715844447296     -1.04578011019617
  C           4.00408269541870      3.97464448757449     -3.30029954831602
  H           2.03627405706934      3.13432003390649     -3.06041397297705
  H           3.47486904356672      4.28300856488179     -0.60790389686578
  H           0.85704571060543      4.15705450445173     -0.16571405222914
  H           1.89055909512461      2.91037488514713      0.57113893863592
  H           4.22675195896390      0.78565105411000     -0.36482924236445
  F          -0.89320881753012      0.29305543263424     -1.78197786205343
  F           0.17086204768075      1.10315758211992     -3.48492473284345
  H           0.70965625903561     -0.57932128289364     -2.56974983601363
  Cl          3.50773739707202      4.84311061549922     -4.77712010446547
  Cl          5.19082652178176      4.96550716281263     -2.44246814417587
  Cl          4.81901719579276      2.45477626041571     -3.80345954041894
