20
Coordinates from ORCA-job NEB_reactant E -43.624080276210
  C           1.46067392334765      0.59320859724978     -0.35417294765621
  C           2.37045414236697      0.86186234523721      0.57628576648278
  C          -0.01197526087722      0.73323158177512     -0.13011836914690
  H           1.76702606435754      0.21564915576228     -1.31568565113160
  Br          4.22862338992432      0.66322016210831      0.12962350171525
  C           2.61946947179404      3.90750466871094      1.04523708787068
  C           3.31672528712570      3.33340128687615      2.01302620315285
  C           2.98868633780557      1.98989258824021      2.58656957620486
  O           2.06382645229932      1.24126438858843      1.82743038092274
  C           2.91456383322454      5.20530959126536      0.40370639028590
  H           1.74131512274538      3.42585012027941      0.63032593814686
  H           4.18809060278757      3.80444392187870      2.44518261760351
  H           2.51238091021743      2.11057018110689      3.56533485533000
  H           3.91927536927504      1.42371003087003      2.72920428402861
  F          -0.64744617462742     -0.45463448767473     -0.40139007751369
  H          -0.44422018506206      1.47274434586573     -0.81683986580405
  H          -0.24138025306002      0.99052747055604      0.90776513522168
  Br          3.21656405222713      4.90307600253513     -1.52838378352676
  Br          1.34793269470641      6.39211236639281      0.59026416238060
  Br          4.45831421942211      6.13695568237618      1.11383479543290
