17
Coordinates from ORCA-job NEB_reactant E -37.914003494950
  C           2.05833260387369     -0.29801840294707      0.17132225958615
  C           1.56717885408692     -1.48023510416502      0.53815540602138
  I           2.94360820555107      0.32871838691000     -1.62907592525415
  H           2.00176881781215      0.52067338598046      0.86600470102763
  C           0.94959725128106     -1.56655033974858      1.93286430810755
  C           4.07468572481582     -4.47124295871481     -0.94506471706083
  C           3.55385878860199     -3.26544608794086     -1.07109977000056
  C           2.08409348157254     -3.04622988410714     -1.25822387618752
  O           1.44525370026111     -2.68483607185864     -0.03917391701125
  F           5.38508095797881     -4.65605622872317     -0.76102740413342
  H           3.53327921071020     -5.40583797007178     -0.98844462146688
  H           4.19347858578654     -2.39817067036691     -1.00096195291789
  H           1.59423995873749     -3.98372236635162     -1.53204294454640
  H           1.89173367405134     -2.30333449370361     -2.03667274570343
  F          -0.35461234585652     -1.90840385199205      1.85053823170261
  F           1.55804290262770     -2.53196963980042      2.65494045227014
  H           1.01817962810808     -0.62493770239879      2.49706251556688
