17
Coordinates from ORCA-job NEB_product E -37.922702502650
  C           3.12529514933348     -1.33301678362239      0.41695902020851
  C           1.63753196071133     -1.24205986231163      0.56787455108268
  I           3.80719699478082      0.31256430029854     -0.79277818622627
  H           3.60961632371443     -1.22507323002141      1.39118299812740
  C           1.03988996158822     -2.15247648621676      1.67158681827782
  C           3.54918064300367     -2.69611758826644     -0.16885342182390
  C           3.16454225463917     -2.84967600402234     -1.60973670094806
  C           2.02175717982171     -3.37314681713405     -2.00848830746380
  O           0.91376867672586     -0.55558765851204     -0.08978990212765
  F           4.91327991898573     -2.79570862144850     -0.03462947222175
  H           3.12578547130919     -3.50035645315053      0.44891736606757
  H           3.90090128874270     -2.48050933810646     -2.30904006268031
  H           1.28842450242951     -3.75276007458249     -1.31577190297757
  H           1.77451195267519     -3.44173263009291     -3.05282821331609
  F           0.71816941381796     -3.35231322910968      1.13292034683000
  F           1.92761438336667     -2.39892545533159      2.65788126076485
  H           0.13053392435434     -1.71280406836931      2.10669380842659
