20
Coordinates from ORCA-job NEB_product E -50.303695240750
  C           1.53190635429462     -2.26806791191418     -0.51794175688569
  C           0.95189725005435     -1.28789511585326      0.48618565947469
  C           1.82752770320998     -1.53225372938827     -1.83284789878609
  H           2.49964391234557     -2.63194343647546     -0.15440940003760
  Cl          1.08268598656841     -1.91084474408077      2.12131308914376
  C           0.54313720826851     -3.45759382562703     -0.62742389293581
  C          -0.88268711934928     -2.99905834830826     -0.81011343664603
  C          -1.82540378644830     -3.22725422121507      0.08326080054177
  O           0.44313027458628     -0.24627414650855      0.26799287644075
  C           0.93115663515744     -4.45221016292273     -1.73527443938128
  H           0.61627338468404     -4.01658740789100      0.31271293374639
  H          -1.09928522680612     -2.48480559107794     -1.73419263723558
  H          -1.62822359742750     -3.74962782252198      1.00542283886142
  H          -2.83736784474038     -2.90066600839575     -0.07612564464282
  F           2.57023288806671     -0.44229686723841     -1.59579295156788
  F           2.56015853289171     -2.30097748852090     -2.65328157169735
  F           0.75454694176970     -1.14140117164205     -2.50627887332332
  F           0.31249577033326     -5.63183988989468     -1.49566465008319
  F           0.51536472698846     -4.04681922523850     -2.95036521687301
  H           2.01361000555253     -4.64968288528520     -1.79347582811314
