20
Coordinates from ORCA-job NEB_reactant E -50.292251412470
  C           1.68133543339654      0.06267964705763     -0.06275672092337
  C           0.87277454819002     -0.93324836683966      0.32097589587065
  C           2.37632439199619      0.01319482012423     -1.38156010276032
  H           1.86663832268159      0.92466631657338      0.54942748064719
  Cl          0.08936625720121     -0.84228754433514      1.85686168769180
  C          -0.20332780043123     -5.31814791513942     -1.00645885522700
  C          -0.32081608806100     -4.00916476427592     -1.14441229677902
  C          -0.21097122987222     -3.03810062503509     -0.01388895753052
  O           0.65443129404477     -1.99021669075367     -0.44068026863203
  C          -0.34435070378062     -6.28754190550107     -2.14126283377978
  H          -0.02281548521427     -5.79152229540679     -0.05227466843142
  H          -0.49992058503274     -3.56429414387776     -2.11280728441277
  H           0.19055705328648     -3.51666886676347      0.88651962949068
  H          -1.20322007291288     -2.62527793087063      0.21468486866611
  F           3.21310041743230     -1.03508301120736     -1.49956806090476
  F           1.53064629332747     -0.07639875067166     -2.42374020324528
  F           3.11506179228376      1.11089846599275     -1.58509788704608
  F          -1.21604717459354     -7.27697407110224     -1.81157259637351
  F          -0.83346176844031     -5.70535829342060     -3.25797811669652
  H           0.61179510449848     -6.77275407454750     -2.40551070962406
