20
Coordinates from ORCA-job NEB E -49.859585714840
  C          -0.19383035595877      0.45489878843467     -0.82336258546794
  C           0.41929467877469     -0.79842899480558     -0.58665457211009
  C           0.55292694341839      1.67269394432658     -1.28160804273553
  H          -1.12291738842564      0.34525920465337     -1.37557082385427
  C           1.89962327488158     -0.92555632154732     -0.21186467357053
  C          -1.12125202675904      0.83170316335548      0.87871408805836
  C          -1.14387274503366     -0.38238039427729      1.57927393897620
  C          -1.59165119230856     -1.52041950103358      0.91049292618136
  O          -0.32818580241360     -1.78401267925087     -0.30712566022569
  F          -0.46573364267786      1.84211245885148      1.46378885017748
  H          -2.01980048040963      1.21186165218550      0.39995942444449
  H          -0.40326624604657     -0.49569846188038      2.36056859927178
  H          -2.42317453753256     -1.42526064585359      0.22438423195448
  H          -1.53759201247794     -2.47270411984662      1.41632859580308
  Cl          1.26935178926047      1.31506531110764     -2.89730363927223
  Cl         -0.58163751993850      3.02912713279646     -1.49497293511556
  Cl          1.86026678824248      2.20125458163580     -0.20825865006262
  F           2.07717499572353     -0.56058060352226      1.08646414213143
  F           2.28133462320483     -2.21476277770156     -0.29558440595749
  H           2.57294085647636     -0.32417173762793     -0.83766880862672
