20
Coordinates from ORCA-job NEB_reactant E -49.903878233600
  C           1.32707680374532     -0.51541985908708      0.10581057897645
  C           1.89867820556479     -1.16990996642595      1.12718539378936
  C           2.00200458227510     -0.08267447891047     -1.14173256882485
  H           0.28043631617373     -0.26125213610014      0.15273431273887
  C           3.36927400322360     -1.56263514432249      1.17832829594279
  C          -1.02340229808754     -1.15245685451949      4.73019503357204
  C          -0.47833997267074     -1.86580609909909      3.76349158360316
  C          -0.08951800698308     -1.28795206776547      2.44140948546404
  O           1.29258514890616     -1.55637335338579      2.25192068362458
  F          -1.37505836914156     -1.70116658132414      5.89557653021676
  H          -1.26147348851098     -0.09846178577405      4.69029034456170
  H          -0.26818778179913     -2.91435677299917      3.90826538009325
  H          -0.26972288794178     -0.20633899217748      2.41886658519704
  H          -0.66541390819579     -1.76865558620693      1.63789606151546
  Cl          2.57459275743678     -1.49183709495581     -2.10289767441099
  Cl          0.86921173201883      0.82746115935499     -2.15725693305931
  Cl          3.41561492555956      0.96849765227256     -0.81673487048334
  F           4.04229135770455     -0.71455310476290      1.99015310379235
  F           3.50050492735080     -2.79416665589531      1.71274479112155
  H           3.85984595337137     -1.56184227791579      0.19605388256908
