18
Coordinates from ORCA-job NEB E -29.557498258580
  C          -0.18947742056653     -0.05546163212693      1.18470650907882
  C           0.49092899914908      1.13890827573697      1.66502719631810
  Br         -2.64515789847215      1.50268982149152      0.43469865239908
  H          -0.72835017581259     -0.62691232466855      1.92509633117396
  O           0.29796768808215      1.31835553543281      2.98297112280928
  C          -0.21997018729224     -0.44091837699322     -0.19615677179744
  C           0.90786499782508      0.03384052603604     -1.06549196293752
  C           0.75281011844199      0.41479922394212     -2.32126583088336
  O           1.17152702505718      1.88456201205094      0.99827650095900
  C          -0.60863457126319     -1.89813440288458     -0.45312271265688
  H          -1.13102020691707      0.16613516910790     -0.54615555924664
  H           1.88686457925604      0.02736318103958     -0.60996487942101
  H          -0.21530361079572      0.46724769249275     -2.79247948273655
  H           1.59282951468845      0.70361361805978     -2.92796345355569
  H           0.73111635379608      2.13501380375307      3.27533636104006
  H          -1.49209025871076     -2.16574502173807      0.11954097123429
  H           0.20975496200560     -2.55387601513329     -0.16398389517634
  H          -0.81165990847139     -2.05148108559882     -1.50906909660117
