21
Coordinates from ORCA-job P E -40.004063146440
  C          -1.18139069780038      0.69259742859174     -2.14438597799565
  C          -0.55363009156803     -1.72374736756815     -0.51124246884808
  C          -1.10961733722951     -1.78015096439081     -1.89746463979004
  C          -1.39245547629911     -0.71677500329278     -2.62871652245704
  C          -0.96192999672061      0.75869947611670     -0.63806365656127
  C          -0.01272072097219     -0.33575582614606     -0.15086866878260
  H          -1.27714779157100     -2.76875907954639     -2.29767445071419
  H          -1.77257388195895     -0.80725556684464     -3.63533123016132
  N          -2.40977568197029      1.44880819665182     -2.53065108977603
  H          -1.34358789814440     -1.99788751876858      0.19411267166781
  H          -0.36313633685889      1.14787372703875     -2.71416368925702
  H           0.24086709314446     -2.46635663507258     -0.40779309767516
  H          -1.92754795448832      0.61820813918615     -0.14742066522590
  H           0.08390871689378     -0.25832145903996      0.93735911604497
  H          -0.58062942532360      1.74290366117824     -0.35673509210855
  C           1.40684380708753     -0.13786713987667     -0.68657280700424
  O          -2.45025023152124      1.85352399864697     -3.66534825926874
  O          -3.28442711465241      1.57376727432382     -1.71092988913933
  F           2.26257992546136     -0.97632544714801     -0.05004519664705
  F           1.52301234765586     -0.42397483546838     -2.00446869899375
  H           1.77903874683594      0.88886494142885     -0.53726568730684
