21
Coordinates from ORCA-job R E -39.910701169720
  C          -1.39589767044191     -0.24767811332845     -2.65085712588402
  C           0.29953720893109     -2.73699627588269     -2.59536773283558
  C          -0.95174536864887     -2.63509619865144     -2.14921224041083
  C          -1.69107866721832     -1.40207256221179     -2.03928524742153
  C          -0.19854943842723      2.39205926267406     -0.46885139081917
  C          -0.40161433860073      1.32829931691752      0.28416953468831
  H          -1.46696317485458     -3.51717326210466     -1.79331605115941
  H          -2.56670662714701     -1.41206653262407     -1.40040775595858
  N          -2.17498003329007      0.91725341821999     -2.43476226329979
  H           0.80557669596021     -3.68601588049871     -2.63193235392677
  H          -0.57362887343718     -0.09045255923080     -3.32990838981201
  H           0.86808696445052     -1.87647078605380     -2.90325188443893
  H          -0.88700765559217      3.21797228894672     -0.47043844863657
  H          -1.25998557801683      1.22478242051174      0.93106604026119
  H           0.65187735255553      2.46969679088443     -1.12590973943614
  C           0.52536968794888      0.14991905285015      0.31824935405407
  O          -1.83500569589702      1.92233759376910     -3.03161295595239
  O          -3.11806804175148      0.86283106824919     -1.66863670807762
  F          -0.16527615247272     -1.01006406132636      0.48603313357840
  F           1.22034763032156      0.00259115784512     -0.83878366394778
  H           1.26080177562834      0.20740386104474      1.14003588943515
