15
Coordinates from ORCA-job NEB_product E -29.741814021930
  C           0.93167922880736     -0.72301966820401     -1.11024688011606
  C           1.66670362540300     -1.08690688053288      0.16761000639521
  O           1.83619120677653     -0.30524967805039     -2.08462003872800
  H           0.16307190731375      0.03523450622467     -0.89528506151452
  I           0.46665573682831     -0.80505794670139      1.95192862050473
  C           0.26734434505103     -2.00073231954371     -1.64926934809952
  C          -0.71956258542002     -2.62711577114489     -0.73052925555118
  C          -0.64033304782338     -3.88370219771174     -0.33118280317536
  O           2.77720908700266     -1.47053315948616      0.25758204565134
  Br         -0.65768728388048     -1.49338271815257     -3.31845416717565
  H           1.05138161740608     -2.69656656581101     -1.95501595565154
  H          -1.54635784592705     -1.99626633356249     -0.43271731027593
  H           0.16713288976129     -4.52966704833128     -0.63569840937292
  H          -1.37836441848226     -4.31118518128656      0.32394349343547
  H           2.26473553718316      0.52115096229442     -1.83594493632608
