20
Coordinates from ORCA-job NEB E -41.430594468110
  C           0.74047600117742     -0.23467718809236     -1.00014176916443
  C          -0.44916589937715     -0.95346779923202     -1.07891120513562
  H           1.62553172966832     -0.76833133621242     -0.68975322302112
  H           0.91436813392813      0.51743040070217     -1.75625433623847
  C          -1.62762316015518     -0.42781390707862     -1.86509132381087
  C           0.43258828140803      0.69564337517057      0.65547753365477
  C           0.15903576426618     -0.34001063033237      1.55140195407593
  C          -0.96967923663904     -1.17583358385406      1.26555675045526
  O          -0.72479555229016     -1.83742002623312     -0.14691448674408
  C           1.64560926396256      1.55261168080857      0.90235658414438
  H          -0.40186339598309      1.30268977760237      0.31512626862214
  H           0.97828037159047     -0.76801049364777      2.10843686607045
  H          -1.91295993574872     -0.65129012833188      1.11363987198649
  H          -1.08897787696682     -2.03433298809065      1.91661950711963
  F          -1.24755437732016      0.49837323633960     -2.79605134112421
  H          -2.35019450002661      0.06535167420480     -1.19611611980665
  H          -2.13304081092619     -1.24328681684788     -2.39404687537438
  Cl          1.36685476269574      2.51895880468196      2.38458298858160
  Cl          3.11496116634350      0.59241101218143      1.14287550148541
  Cl          1.92814927039277      2.69100493626167     -0.43279314577624
