20
Coordinates from ORCA-job NEB_reactant E -41.463052479520
  C           2.82698924003702      1.50078431821688      0.14142868184040
  C           1.59031705079138      1.79029781464706      0.51361799270708
  H           3.60509893839450      1.23260476916818      0.83078088473322
  H           3.09177924815918      1.54646892838613     -0.89763119152708
  C           0.49897414835888      2.19565432835752     -0.44598957801013
  C           3.06588867205235      3.49562873388419      2.85649475165658
  C           2.95882689445293      2.24498809669299      3.27592792357336
  C           1.88855749349470      1.29753340174265      2.82371447870268
  O           1.07072091049674      1.77058816589901      1.78172891706602
  C           4.11247708279371      4.46245665577139      3.26904330223874
  H           2.36564070145556      3.90139912977884      2.13986855965812
  H           3.64974012815478      1.83223088934455      3.99648295736269
  H           1.20414228951546      1.11582758383262      3.66068368053374
  H           2.34717115355988      0.33770904684650      2.54641655966873
  F           0.96749965366609      2.32864085944437     -1.72178996698458
  H           0.07194623268016      3.16023787899208     -0.14908021912105
  H          -0.29418368439348      1.43915430615522     -0.46555162785992
  Cl          3.33768655017084      5.92491610296417      3.94736040565149
  Cl          5.23919764030766      3.82699503765864      4.47436393246997
  Cl          5.05572965585167      4.95328395221700      1.82742955563995
