20
Coordinates from ORCA-job NEB_product E -41.478049082390
  C           2.40658569306338      2.31223772526325      0.98655935755292
  C           0.99281559814269      2.69977177371735      0.62364104594072
  H           2.50829374715523      1.25210878992996      0.73473582270698
  H           3.11926427553345      2.85636151718631      0.36586359567075
  C           0.75835798264384      2.96923346180058     -0.85380568921353
  C           2.69370208271853      2.51089012670578      2.48063940812991
  C           3.65039411509790      1.47409847887018      2.99998185187504
  C           3.36791449720971      0.65877685583421      3.99717792899703
  O           0.08953456960431      2.77835683316941      1.41253080637078
  C           3.24774365651135      3.91250376658334      2.73969017599341
  H           1.74332634844097      2.43639245081566      3.02319429599595
  H           4.60371603084738      1.42807293015173      2.49333159167936
  H           2.42219727651501      0.69632276144325      4.51207414927247
  H           4.07071122611377     -0.08072408407466      4.33928954187608
  F           1.81408555759307      2.58073179264634     -1.63180660949101
  H           0.61648804821535      4.04642674873131     -1.00186728801008
  H          -0.13120929868067      2.43571932011091     -1.20373063139314
  Cl          2.14312977237887      5.16042167020437      2.11280070010864
  Cl          3.45107523267222      4.17111641140525      4.48596415470800
  Cl          4.82947358822363      4.14588066950547      1.95783579122971
