21
Coordinates from ORCA-job NEB_product E -33.537410832550
  C           3.10483309766858     -0.25808973222399      1.10749948866389
  C           1.86578083404828      0.53338542937904      1.52659533514918
  O           3.34579793980025     -0.14111513338734     -0.27383333524237
  H           3.95921403654203      0.13888964470570      1.67914544577222
  N           1.13120693283630      0.96771886333105      0.48974887356663
  C           2.90030174435008     -1.75147372858047      1.47432440324332
  C           2.75891692669526     -1.93665410936304      2.95468249829940
  C           1.80017695339630     -2.65542811918323      3.50633127608209
  O           1.57917256444392      0.70618079195195      2.69060093945453
  O           3.94142971519165     -2.51593240456219      0.86974365470849
  H           1.99665391605886     -2.10665810543393      0.96352472904520
  H           3.49223428683141     -1.43107718248097      3.56624347975519
  H           1.71846090095101     -2.76333560679802      4.57379847591296
  H           1.05191189306690     -3.15522554985059      2.91369126546598
  H           3.79304361690851     -0.95917464422291     -0.54162491203193
  H           0.32350208116674      1.54304968153661      0.65643463278961
  H           1.49505021811286      0.85299071688921     -0.44195266956016
  C           5.17040856120304     -2.56131910529666      1.56093130856777
  H           5.85236475430898     -3.10515739539961      0.90906162566327
  H           5.07279053033968     -3.09742026318099      2.50934630569892
  H           5.57484849607936     -1.56215404782960      1.75080717899578
