20
Coordinates from ORCA-job NEB_product E -32.778780252780
  C           4.15085050834679      1.75610235212020      1.09338201899742
  C           3.03038011685089      2.68060556458588      0.68370943048362
  I           4.19571098183968     -0.00570245615320     -0.13275583893580
  H           5.10972813303183      2.25427816555331      0.94774936407323
  O           2.12054934222032      2.09207447872741     -0.07993533884436
  C           3.99200660685182      1.43548448363867      2.59067922738080
  C           2.66976043455215      0.76121465714928      2.85153861630351
  C           1.65150243296899      1.34339429906651      3.45499044800573
  O           2.96654065541193      3.82212038066288      1.05868927397425
  N           5.14635967395943      0.68509525796317      3.04705129933329
  H           4.00966238494803      2.40764960663943      3.10237147643552
  H           2.60074280539472     -0.26547571885100      2.51294019248490
  H           1.70555725752373      2.36426288196157      3.79816071179949
  H           0.72142296948344      0.82843397012616      3.62697100145312
  C           0.99825360493809      2.87640913205489     -0.45534461475779
  H           0.38523997827295      2.24165093131156     -1.08958408607531
  H           1.32356591644226      3.76592803677493     -0.99803668611921
  H           0.44406008971350      3.18659662729129      0.43253712562634
  H           5.15328757677592     -0.24369886701829      2.63416948977965
  H           5.12531853047352      0.57917621639536      4.05411688860161
