19
Coordinates from ORCA-job NEB E -33.810869274890
  C           1.11873408901117      0.42993812455546      0.32098983203289
  C           0.58142278531870      0.32401191312047      1.58811450046688
  C           0.77063825517302      1.62198689025226     -0.51868517407820
  H           2.11759571470119      0.04031112039561      0.16939320583079
  F           1.22913428385641     -0.57553257165319      2.41500900622300
  C          -0.12102771145698     -1.09777261791499     -0.55578471403461
  C          -1.35563367592015     -0.55019032694883     -0.20043982703811
  C          -1.75045063032997     -0.51267270312777      1.13235903958135
  O          -0.57488264357658      0.64146785877510      1.92133566374372
  N           0.25874556574665     -1.21081342952337     -1.86318106858313
  H           0.30706804411319     -1.86027858078253      0.08321115150679
  H          -1.83749494576381      0.10886953426753     -0.90890940126510
  H          -1.48912716785614     -1.33769495584586      1.77976079694278
  H          -2.67015117895177     -0.01266950465890      1.39010872551967
  F           1.78467924508561      2.55501917852833     -0.45348957525895
  H          -0.13730350327847      2.10925029107360     -0.15260224262363
  H           0.67587471271313      1.37396247399859     -1.58255408421907
  H          -0.10495590400343     -0.52817472086159     -2.50945114257387
  H           1.19713466541824     -1.51901797364991     -2.05518469217319
