19
Coordinates from ORCA-job NEB_reactant E -33.836095450500
  C           1.80450580085849     -0.08500911676595     -0.03295848116690
  C           1.05408981091114     -1.18194389243875     -0.04588545154360
  C           2.12440685978684      0.68605905110473     -1.26799436390117
  H           2.23877007330783      0.23992293245565      0.89668239004492
  F           0.81769091096631     -1.83482169375345      1.11374725648839
  C          -0.34158831470628     -4.36970596775829     -2.96759659187586
  C          -0.80578099567627     -3.31803150313831     -2.29375682896414
  C          -0.28955963631390     -2.91990778309585     -0.95468269470667
  O           0.45843805354956     -1.69945987991764     -1.11303898078577
  N          -0.84242960661158     -4.82467326041307     -4.16349770961599
  H           0.42862914150403     -4.99894101386560     -2.54144715758632
  H          -1.56865421988489     -2.68381089233822     -2.71912171904775
  H           0.36506707224828     -3.69592197773211     -0.54300946804609
  H          -1.11145977165902     -2.73741556055864     -0.25040844297905
  F           3.48144949322269      0.64762741494156     -1.53051854283496
  H           1.87420098384543      1.74744961468788     -1.15717174988016
  H           1.62204873276169      0.25928896405676     -2.13962721015716
  H          -1.42036386942256     -4.17256221779484     -4.67095017321970
  H          -0.21786051868777     -5.36224321767584     -4.74106408022200
