19
Coordinates from ORCA-job NEB_product E -33.845616383630
  C           1.40220625300083     -1.45000400961588     -1.32567501481188
  C           1.09153447311718     -1.27451230281290      0.12304924838064
  C           0.81747752576336     -0.26284742200891     -2.09306971000906
  H           2.48946123569557     -1.48946999695062     -1.45499842323395
  F           1.78544908517611     -2.16692655571545      0.88396665379204
  C           0.87292029028943     -2.84207845308073     -1.80546610815790
  C          -0.61030041653824     -2.79158187292257     -2.07237613719231
  C          -1.52523798443972     -3.21927831882932     -1.22340276209844
  O           0.35601864211894     -0.51801233850672      0.65214381189369
  N           1.67259012872886     -3.25535560710276     -2.94319322761256
  H           1.07109732857979     -3.56204594884089     -1.00160631377305
  H          -0.89128227469828     -2.39648784426318     -3.04037016131298
  H          -1.25996423273191     -3.62150353164709     -0.25906703791194
  H          -2.57660573927218     -3.18257740364960     -1.45146995211763
  F           1.02506771128959     -0.39467158118750     -3.44092869365669
  H           1.30036632159055      0.67035862078312     -1.78724869440753
  H          -0.26274193632657     -0.18804879902452     -1.93657840261669
  H           1.52128906842354     -2.63688918573254     -3.73288879022674
  H           1.42565452023316     -4.19636744889194     -3.22532028492701
