19
Coordinates from ORCA-job NEB E -33.805767855410
  C           0.27979614128060      0.98526335317782     -0.34744088780310
  C          -0.89388905620465      0.69465165242844      0.35761956179472
  C           0.29175546070872      0.75980064850029     -1.84055369747035
  H           0.82759452761320      1.87606517293658     -0.05844591457630
  N          -1.11670505130001      1.26794367362129      1.59639143450373
  C           1.34836619882225     -0.52615644488313      0.37267335573938
  C           0.59308610602206     -1.64644366735270      0.05248344531189
  C          -0.72691219807381     -1.70508828353150      0.59563915118011
  O          -1.54536434911285     -0.40379737402407      0.09260849455551
  F           2.55395924525666     -0.38421313772277     -0.20858289409150
  H           1.38543199437754     -0.15489338138994      1.39458593901750
  H           0.80461761632285     -2.15255181489167     -0.87645527121756
  H          -0.79465562416485     -1.57306964786444      1.67377294824928
  H          -1.34870385740454     -2.51791880919864      0.24099307871721
  F           1.49423299245876      1.13133747525630     -2.37813631920145
  H          -0.46653494259246      1.38886876368177     -2.32554828305747
  H           0.11813706442060     -0.28715552586348     -2.10510930693755
  H          -1.99607218016188      1.03216421741447      2.02842830927301
  H          -0.80814008826819      2.21519312970538      1.73507685601292
