19
Coordinates from ORCA-job NEB_product E -33.861433065310
  C           2.60220496192118     -0.64712214668278      0.80428547887338
  C           1.29703465666890     -0.45993390111985      1.57633061814771
  C           2.27389939993967     -0.78977779673393     -0.68140844033455
  H           3.24769288489117      0.22615688018767      0.94549581064487
  N           1.45321202071889      0.14072547843838      2.77666894504182
  C           3.36070610166477     -1.86642521912969      1.38891816883934
  C           2.98158295073721     -3.16427864275243      0.74369374254058
  C           1.99796497142079     -3.92998901518628      1.17412345018804
  O           0.22364227927806     -0.83533136155815      1.16876196761628
  F           4.71610043989777     -1.64990173177643      1.23438094434132
  H           3.19577522666435     -1.90795051685469      2.47523487329951
  H           3.57500497730444     -3.42137199230036     -0.12182053615688
  H           1.40320427596429     -3.66582422847989      2.03299544832568
  H           1.73717396032902     -4.84579544543887      0.67375272139691
  F           3.41111677051647     -0.94905518091576     -1.42637099797666
  H           1.77480282334937      0.11390477196538     -1.04534178961671
  H           1.63556655946313     -1.65993069484124     -0.85711927140479
  H           0.63956304628741      0.29211459375645      3.35017532838848
  H           2.34115169298309      0.47938614942248      3.10164353784566
