19
Coordinates from ORCA-job NEB_reactant E -33.831367419620
  C           1.57741663571257      0.05108501803329     -0.07754576172909
  C           1.69359274611956     -0.45752843454631      1.15637340890901
  C           1.16601258387817     -0.76310705016165     -1.25394146856308
  H           1.83420939419422      1.08312177744816     -0.24974020072468
  N           2.13426246995188      0.26036449892030      2.25018098272923
  C           3.89069851077642     -3.53986644616384      2.96555264411909
  C           3.56112257244172     -2.59510726536346      2.10746711623820
  C           2.40452322636650     -2.71579998762521      1.16341675455307
  O           1.38342969830474     -1.76343787396349      1.45375956716401
  F           4.92632425437001     -3.40274639752177      3.80849952448479
  H           3.40512850270388     -4.49894418202435      3.07641544318000
  H           4.11077922719541     -1.66524841031458      2.08362485498383
  H           1.91912544392463     -3.68880143508042      1.26426775084701
  H           2.75923889811101     -2.58749622746567      0.13372004085027
  F           2.27107232362590     -1.26245908648741     -1.94144134588133
  H           0.61214459412768     -0.16554976994091     -1.98351140443347
  H           0.58056692857791     -1.63712101686627     -0.95268609945643
  H           1.86323884734592     -0.12759603347616      3.14075153219817
  H           2.06001314227190      1.26253832259974      2.18653666053140
