15
Coordinates from ORCA-job NEB E -30.626854254630
  C           1.10289881341390      0.91092969250931     -0.30461841445336
  C           0.66172537860664      0.65556437537742      0.99539769171316
  F           0.51625918294292      1.91894065889538     -0.97825915177666
  H           2.15766724256083      0.83099554024945     -0.54451153279381
  O           1.49611289073943     -0.08801740362370      1.77375062672905
  C           0.17992817013002     -0.63951427553551     -1.17903009117126
  C          -1.14179606967470     -0.38101906535279     -0.85064477124333
  C          -1.49035014033479     -0.43729199402642      0.52461286654547
  O          -0.58496948479763      0.72474234073186      1.30095072091444
  Br          0.71410989311861     -0.53998469000159     -3.00635360428917
  H           0.73583629211996     -1.41470590202340     -0.66435945964164
  H          -1.72848219412495      0.23859083829205     -1.51176704572488
  H          -1.15813274542391     -1.31558646453672      1.07222253525664
  H          -2.49383414837311     -0.12937590876601      0.78562298369836
  H           1.03302691909678     -0.33426774218931      2.58698664623697
