15
Coordinates from ORCA-job NEB_reactant E -30.650084784330
  C           2.11610519926704     -0.13809901091093      0.13028537783511
  C           1.36511343407321     -1.23830215666360      0.05326828130559
  F           2.29613861447033      0.67210636509666     -0.93661136877554
  H           2.63184559786077      0.19797046356415      1.01336797056983
  O           1.17185950822791     -2.06450165847886      1.11929727031981
  C          -0.66455518596858     -4.09359182117975     -3.05905781359024
  C          -0.65503930443169     -2.94902407721617     -2.40109669481287
  C          -0.03175430622267     -2.78668883766301     -1.05243267875921
  O           0.74979006894372     -1.60160141010753     -1.08506778036811
  Br         -1.49578020477104     -4.29162860677245     -4.74021044236929
  H          -0.22672013744419     -5.00854902478343     -2.69202440644308
  H          -1.09662116801129     -2.05498457245697     -2.81589155816683
  H           0.59226383688118     -3.65040774921765     -0.79355633708618
  H          -0.81848799725094     -2.68874493549607     -0.29025517162633
  H           1.64524204437623     -1.73275296771437      1.88948535196733
