20
Coordinates from ORCA-job NEB_product E -40.054655740540
  C           2.76295062390258      2.12250020287490      1.61000218964963
  C           1.49162707559841      1.52925152690794      1.01813186831170
  H           3.61551928871707      1.63647724820937      1.12744530337491
  H           2.80853840378582      3.19553489194074      1.41819608942058
  C           0.58795855261353      2.57707464481577      0.38997980842505
  C           2.80255116888657      1.82963996889908      3.11911509930689
  C           2.90894504453996      0.35147632431029      3.37100631458229
  C           2.09313390809171     -0.31284538986170      4.16683419089795
  O           1.23213705490259      0.36183333403724      1.05787678693999
  C           3.96365703229824      2.55543846626863      3.79420941805395
  H           1.88351346987382      2.21022541980536      3.58512835215031
  H           3.71468965331147     -0.15102568826365      2.85419398040929
  H           1.27950245850818      0.16700734689359      4.68583300399608
  H           2.20174272790002     -1.37091642246482      4.32323620858150
  F          -0.55692072735518      2.02843642915601     -0.10243922792309
  H           1.10640646535258      3.06771785129726     -0.44303916173039
  H           0.30078042632266      3.32650099222263      1.13812943095464
  Br          3.99544989049953      2.15871317463416      5.70913961784114
  Br          5.68779237834660      2.04874313536558      3.04428960635987
  Br          3.77932510390385      4.50221654295162      3.61583112039773
