20
Coordinates from ORCA-job NEB_reactant E -40.046531094570
  C           2.55835265588558      1.28331043736572      0.67997868396677
  C           1.40012554381582      1.48182965354488      1.28888681667469
  H           3.36965333007657      0.72702057651991      1.11107176247911
  H           2.72186542992825      1.69933756725382     -0.29569193203693
  C           0.26507630938605      2.27736897053054      0.69372649975302
  C           3.25836154266015      2.12254763653421      3.86470645365311
  C           3.07654814571028      0.81234821422487      3.82474779751873
  C           1.87979123713169      0.15544929275953      3.20744460807565
  O           1.01167247364289      1.02251399367747      2.52178927964553
  C           4.41842763435888      2.82850736151262      4.44312520550552
  H           2.52419588292652      2.79160627601206      3.43235970765919
  H           3.79081849420084      0.12382510135590      4.25513996283061
  H           1.27169006079307     -0.28542389174531      4.00621506256708
  H           2.21502277356532     -0.65846968151269      2.54900456751877
  F           0.60895688826763      2.83197121308080     -0.50489797892400
  H          -0.02182808490087      3.09452357846013      1.36561327248303
  H          -0.60294731854160      1.63071001200389      0.52050255189844
  Br          3.79720920104353      4.11930594964939      5.79895105072069
  Br          5.73537306014966      1.67838317763843      5.28390057763371
  Br          5.33353473989973      3.84713456113381      3.01492605037731
