17
Coordinates from ORCA-job NEB_product E -30.214825898080
  C           2.96874433710753     -1.40640533280274     -1.62885493340302
  C           1.48272325621935     -1.26658321913698     -1.37696286906125
  Cl          3.83158747207128     -0.29362042339214     -0.52467774827777
  H           3.25776881953974     -2.41865270132144     -1.31961822236985
  H           1.23721030239503     -1.00562321614602     -0.33294645478330
  C           3.31908408478201     -1.18265692831882     -3.10950028729066
  C           3.34914302058009      0.28412099710053     -3.44587193995245
  C           2.37036604605161      0.90788512749448     -4.07123695807397
  O           0.63870648473644     -1.43432012670948     -2.20693502178407
  C           4.63398674064873     -1.85961350016625     -3.50204921237557
  H           2.51914010610549     -1.66701923951000     -3.68208860925158
  H           4.23953511351073      0.80948079756484     -3.13097857957652
  H           1.47565202427799      0.39299112306633     -4.38087822661074
  H           2.41997241262708      1.96045189708728     -4.29005251876214
  F           5.69760579077536     -1.34375302794933     -2.81056858303694
  H           4.84058626532016     -1.69587968197250     -4.56494030164862
  H           4.60938772325134     -2.93370254488777     -3.28623953374154
