21
Coordinates from ORCA-job NEB_reactant E -54.000396158090
  C           1.53702728732497      0.01916063899988      0.17631900364861
  C           0.82470497274471     -0.99047575012059      0.71532308503085
  C           2.67753756650017     -0.18573050749547     -0.72426593317615
  H           1.26075382359249      1.02772459582266      0.42172672615126
  O           1.04075586940030     -2.29523357029462      0.50519188390910
  C          -0.73240178327206     -2.71409086274343      4.41811640758621
  C          -0.17071166803678     -2.37440282769694      3.27011941158240
  C          -0.91732074857972     -1.76222416211484      2.12590510966144
  O          -0.19959032452586     -0.69368639438928      1.52437751477057
  C           0.02662253829445     -3.35823320561527      5.53530048138753
  H          -1.77974544786171     -2.56777650540537      4.63466525674294
  H           0.88500694275532     -2.54077158791295      3.10304437330891
  H          -1.85684610389814     -1.31813267365933      2.45984872217529
  H          -1.12538286850883     -2.54163792496352      1.38128576335502
  Cl          2.21396928194846     -1.14289758254095     -2.19985736936656
  Cl          3.35924547921542      1.34436166423131     -1.26450948050682
  Cl          4.00330497203892     -1.14236766411157      0.06947847198447
  H           1.76188332770961     -2.43029685804332     -0.12731301658256
  F           1.33263737084978     -3.50221571877470      5.28169250512526
  F          -0.06968445159468     -2.65304885287727      6.67554607685746
  F          -0.44726603609684     -4.58632425029443      5.81590500635480
