21
Coordinates from ORCA-job NEB_product E -54.012404822730
  C           1.48193788824136     -1.03932348126750      2.18919016610997
  C           2.59274478909066     -2.12766731734601      2.10730044290039
  C           1.39562405690123     -0.20715985692157      0.91239429902126
  H           1.82293639779300     -0.35192281789225      2.97430854211994
  O           2.54300069483968     -2.96087847081597      1.07862075057187
  C           0.10488915322498     -1.60937987329354      2.61168686474676
  C          -0.24862509010946     -2.95366576284203      2.02981077787486
  C          -1.32793141177659     -3.16560209142306      1.30132823031883
  O           3.43660825438280     -2.19485118006453      2.94504650216841
  C           0.05151274598868     -1.74150730203725      4.13823854859959
  H          -0.66865964723290     -0.87764001590337      2.35036308657387
  H           0.41223647376753     -3.76598352656135      2.29889665439479
  H          -2.01007341725149     -2.37217535738252      1.04500292837924
  H          -1.56888848321690     -4.14537191189605      0.92942717031945
  Cl          0.66093091566974     -1.10063829276234     -0.45481967320530
  Cl          0.40304084806029      1.25181799677000      1.18773889022639
  Cl          3.03701893243057      0.30322049836668      0.43058273307663
  H           1.82857899506969     -2.77966250953912      0.44318927132021
  F           0.89325847187988     -2.65977560019699      4.61422117348704
  F           0.33608545474511     -0.58764651295894      4.75811471652155
  F          -1.17722602249785     -2.09428661403230      4.54065792447425
