20
Coordinates from ORCA-job NEB_product E -49.577173030270
  C           1.14052038343820      1.25782280147503     -0.99620284167991
  C           1.38285640851813      0.48602526141768     -2.27139130247032
  C           2.02094833214232      0.89383058595641      0.21145258067585
  H           0.11391177613390      1.01391233176240     -0.68797156547634
  N           2.84289084033513      0.08411350483395     -2.58941861096443
  C           1.15406470938498      2.78484641959201     -1.32489022055353
  C           0.85039817190496      3.60788419007054     -0.09509158030375
  C          -0.31947883516324      4.18299893581114      0.10500605076267
  O           0.55833132109848      0.21636793940403     -3.07652338086087
  C           2.41309186889754      3.22042145058384     -1.89998936862415
  H           0.37358731401802      2.95415005576654     -2.07892736983054
  H           1.65801882421745      3.70704811550687      0.61498813287511
  H          -1.13152813877048      4.09856860382764     -0.59929954544217
  H          -0.50996970922489      4.76770076391383      0.98725331970814
  F           2.39515193259140     -0.39074809229463      0.17279767768765
  F           3.10210556432020      1.64024197596705      0.38034502163504
  F           1.29248584890547      1.03300557481740      1.33548600173431
  O           2.95660138477311     -0.70610466498531     -3.48062977273488
  O           3.70408711960365      0.60837055497229     -1.93558289085649
  N           3.37232488287567      3.61814369160128     -2.37221033528138
