30
Coordinates from ORCA-job NEB E -38.672202541550
  C           0.22171255054014      0.38402648490940      0.49689938750142
  C          -1.12896843826971     -0.20132332455272      0.91358571053836
  O           0.15782493633167      1.77263845025002      0.28008194288098
  H           0.97063172231970      0.15875620652536      1.27783752849419
  C          -1.04301950137202     -1.47416236821710      1.73491795367280
  C           0.61781380886264     -0.33352751196554     -0.82168287621104
  C          -0.21662675091855      0.20797178596161     -1.94372688478977
  C          -1.24500240848655     -0.43607804948687     -2.46060736306355
  O          -2.17283972748308      0.31201839871214      0.60763750691632
  C           2.12482166614921     -0.25284541058565     -1.11576128723721
  H           0.37212324083030     -1.39454313070546     -0.69031307718875
  H           0.05440109723948      1.18998092854448     -2.29799637359048
  H          -1.54606678974257     -1.40922589924340     -2.10620034350863
  H          -1.83877364834615     -0.01805961330541     -3.25483664988707
  C          -0.08174611382508      2.52010673209694      1.44457446393247
  H          -0.02290390795935      3.56639785214332      1.15142561701153
  H           0.67830344870755      2.31195766984241      2.21010216614245
  H          -1.07318122556719      2.31800209466893      1.86207518259751
  C          -2.23621009856007     -2.38966520563183      1.48682118608997
  H          -1.03638109867154     -1.15896398276532      2.78334200578262
  H          -0.10103467973959     -1.98833385036456      1.53922121206812
  H          -2.18241198049700     -2.81845856479102      0.48892233465918
  H          -3.15795752080039     -1.81883799886249      1.56252970097535
  H          -2.25831835118843     -3.19909194401546      2.21195699669379
  C           2.69225393434203      1.16740214558161     -1.22613859294404
  H           2.29167137856425     -0.79289168071343     -2.05026264551252
  H           2.65144535547718     -0.80150915470487     -0.33103965636710
  H           1.90185548207422      1.90426913083894     -1.13428942633209
  H           3.19011912581236      1.31498586572892     -2.18088325030925
  H           3.41646449417653      1.35900394410700     -0.43819246901556
