30
Coordinates from ORCA-job NEB_reactant E -38.671338563200
  C           1.50148568621757     -0.33900323402198     -0.18395410147314
  C           1.29814336110365     -1.53223602952790     -0.74193459218106
  O           1.53113984333925      0.87981161805337     -0.83237286618237
  H           1.64263296712364     -0.28596062837105      0.89073648490025
  C           1.17499995495163     -2.76648886945351      0.11470310866051
  C           3.71541508966759     -0.87020263032463     -2.70781004819428
  C           2.63110006654166     -0.29850777105249     -3.20167162037542
  C           1.23445322263523     -0.82331874467941     -3.02499416977530
  O           1.10387717775756     -1.84175803251816     -2.05772035874907
  C           5.12638726482692     -0.38308161445065     -2.84112051092878
  H           3.61715164909867     -1.78733423091101     -2.13973047053509
  H           2.68021438821904      0.61380325435107     -3.77645227778581
  H           0.89512323125986     -1.28819510721642     -3.95946828966123
  H           0.56375990909953      0.01219177465707     -2.79010152655192
  C           2.48486918519371      1.77331277983605     -0.31700359134028
  H           3.50443649198327      1.41710046776894     -0.50314580477710
  H           2.35111049367068      1.91734329490220      0.76213921328615
  H           2.33228631033180      2.72108641426082     -0.83068798789832
  C          -0.29144355349266     -3.09275917670366      0.39732649847033
  H           1.70955790012359     -2.61936360464671      1.05327798254796
  H           1.62918542524602     -3.59989124011307     -0.42319568880193
  H          -0.76119564846016     -2.27727296431964      0.94192009764281
  H          -0.37094234126117     -4.00105234506131      0.99010401987542
  H          -0.82592319290885     -3.23811864363139     -0.53748491891784
  C           5.28640123191785      0.93284501963683     -3.59064708290779
  H           5.70828690077566     -1.16124562140405     -3.34634031567375
  H           5.54911260849012     -0.28192536113495     -1.83549982767280
  H           4.92773959080844      0.83811403368171     -4.61259555812236
  H           6.33566054440681      1.21890148060021     -3.62134090358111
  H           4.72877424133312      1.72580571179373     -3.09763489329672
