27
Coordinates from ORCA-job NEB E -46.164120788750
  C           0.79549855856251     -0.13157069017072     -0.12594183586740
  C          -0.48876935585002      0.57943252427234     -0.46043329011686
  O           0.61279000601424     -1.53161329525313     -0.05626895350457
  H           1.56235580526144      0.10930566174944     -0.87792371468332
  C          -0.63357831977748      1.28222816792270     -1.76902640184085
  C           1.19015442572951      0.37098979208698      1.27212977397464
  C          -0.08431416660238      0.68098643183164      1.94717174862975
  C          -1.33914368434785     -0.02109013285895      1.53278340912148
  O          -1.60747251036784      0.24585444699138      0.17786211480708
  C           2.09877852300849     -0.60426943165575      2.06169512702618
  H           1.80199985300324      1.27480401142935      1.14110952864608
  H          -0.01997128354283      0.90330970704413      3.00541334067531
  H          -2.20441152605499      0.34974049201699      2.08651452673806
  H          -1.27343243789174     -1.10679983746695      1.69347848335551
  C           0.42062164035572     -2.17194542473806     -1.29276934592524
  H           1.25498389410486     -1.96611161778081     -1.97299538337717
  H          -0.51945498902440     -1.86894921375166     -1.76511300873026
  H           0.38764190820243     -3.23664998476020     -1.07030930412492
  C          -2.06943111499137      1.69255921248830     -2.06994190023600
  H          -0.24693019651265      0.64733254056132     -2.57555222293062
  H           0.01097814355808      2.16906798675932     -1.74358540179017
  H          -2.71250518479211      0.81802517315395     -2.11639614979064
  H          -2.11587445054761      2.21280004989192     -3.02268599710750
  H          -2.44651615687745      2.35053481778618     -1.29204089662029
  Br          2.84347730091252      0.32677803747118      3.61783752661695
  Br          1.17059968813433     -2.17059047272911      2.72233111735294
  Br          3.61192563033337     -1.20415895229179      0.95265710970183
