27
Coordinates from ORCA-job NEB_reactant E -46.218019080330
  C           1.46847769681245      0.28404157624115      0.45707432789527
  C           1.36154855433733      1.60755972223636      0.35484578334381
  O           1.64085376567069     -0.43096289919340      1.62583469766098
  H           1.39767291701161     -0.31330746975942     -0.44329964849458
  C           1.08866616702590      2.26495071618762     -0.97159192617204
  C           3.25861081725074      0.85207041195177      4.02467691556308
  C           2.93860278018543      1.50109677915478      2.91558450754502
  C           1.60143424315995      2.13238386991894      2.68018041068925
  O           1.41632656403787      2.54993320147626      1.35335567618314
  C           4.55123599223103      0.20083749040833      4.30295907093202
  H           2.54522396604050      0.75495258740741      4.83405925942851
  H           3.64203412705534      1.61305024641105      2.10095190495869
  H           1.51902797934290      3.05169328530620      3.27287609821064
  H           0.80488703405440      1.44419931719330      2.98986357706447
  C           2.27233636662745     -1.67717765462834      1.45323681747789
  H           3.31474487122768     -1.55685018419018      1.13702451964777
  H           1.74676530387081     -2.28787053363391      0.71154651051673
  H           2.23986794990070     -2.17773498435777      2.41953531519469
  C          -0.40173558501635      2.56027467564017     -1.14137041020653
  H           1.43421423663279      1.62080779156933     -1.77969156486467
  H           1.64550812822171      3.20227436248872     -1.00542007731948
  H          -0.97539817768131      1.63681794796456     -1.12015277035678
  H          -0.58155020287206      3.06121343778825     -2.08925642655626
  H          -0.74856189368540      3.20300065741346     -0.33673590138492
  Br          4.25108993951422     -1.66390240688445      4.86889424050501
  Br          5.78031643683180      0.15619053281595      2.80695260611775
  Br          5.46340002221181      1.12665752307388      5.80106648642053
