23
Coordinates from ORCA-job NEB E -40.913728510390
  C           0.19342430813472     -0.75350406776413     -0.72347750520650
  C          -1.15376778882773     -0.37679479401015     -0.68267072835734
  C           0.58452373316615     -2.14525913171619     -0.29301620993800
  H           0.73865509914357     -0.42029745016244     -1.60131199076376
  C          -1.61511541631761      0.72697123835461     -1.62895378254764
  C           0.91070673301277      0.35227554519950      0.75890314664044
  C          -0.17768336099284      0.86867720433556      1.46445184539248
  C          -1.19563086823172     -0.03818493506814      1.83275431192450
  O          -1.87474817544348     -0.54171607364546      0.37656599406004
  C           1.88638279669563      1.31393531322651      0.13353420296456
  H           1.40202096594044     -0.50667450289159      1.19965172411516
  H          -0.47284445000610      1.89031182004611      1.25851074094857
  H          -2.07266441614138      0.35626430187364      2.32827818588355
  H          -0.87901255645080     -0.99658082816650      2.23016979365868
  H           0.07331523299907     -2.44452972188127      0.61775479034834
  H           1.66035635871684     -2.22622809222061     -0.15982082878822
  H           0.29549756191226     -2.83657146884157     -1.08492487863024
  F          -1.02851318437201      1.92498211751469     -1.32397283888794
  F          -1.24955673192748      0.46134560193453     -2.90480023473114
  H          -2.70369834406456      0.87185456874049     -1.59507320839983
  F           2.91305984110991      0.62822941583230     -0.46947724745128
  H           2.34591072172831      1.95136084243264      0.89894813120855
  H           1.41938194021603      1.94013309687747     -0.63202341344298
