23
Coordinates from ORCA-job NEB_reactant E -40.944260672990
  C           1.93496769312818      0.34476694148940      0.05094679444899
  C           1.36397572974464      1.48197723254223      0.44162937770795
  C           2.24278545464840     -0.82122334926797      0.92770796178121
  H           2.19750078103303      0.23686374667969     -0.99108413526015
  C           1.02118508597044      2.55594842793717     -0.57200067664245
  C           4.13596131349605      3.05673990230030      2.07223573032899
  C           2.84545306406822      3.15109302129685      2.34242118759143
  C           1.98474388363162      1.97469700574612      2.69027958303343
  O           0.95822494587180      1.77685072550182      1.71952490302813
  C           5.00040715596638      4.21410376537999      1.68972313211218
  H           4.65350005651981      2.10831419610383      2.13150180212275
  H           2.33050270880067      4.09771934128693      2.26284265567934
  H           1.43511719827868      2.15735462637472      3.61785808350850
  H           2.59972537082375      1.07499300992579      2.80132395321601
  H           1.65882573243538     -0.78671059392169      1.84342712269065
  H           3.30410721888104     -0.84279689422656      1.17809258874460
  H           2.01196163855482     -1.74339748397368      0.39839758880837
  F          -0.30820390554173      2.81759283625078     -0.57879953400754
  F           1.62855845235273      3.73591326924626     -0.27651338178300
  H           1.31526153159865      2.27930524584726     -1.59559914948366
  F           6.01180296305952      3.79717884439722      0.85618153916985
  H           5.49077830152026      4.65154897318791      2.56962778571684
  H           4.43755762515768      4.98476720989563      1.15487508748758
