18
Coordinates from ORCA-job P E -32.432123809330
  C          -1.30014186463884      0.62837986820083     -2.09422086385281
  C          -0.52128869507447     -1.74761048167608     -0.47270698007481
  C          -1.16404008430171     -1.83200847069511     -1.82309505143921
  C          -1.50319569982090     -0.77925865108214     -2.54886118176711
  C          -1.03175236980769      0.72053713059441     -0.59485291778206
  C          -0.01734863813818     -0.34415251444543     -0.17175011441605
  H          -1.33539129174922     -2.82911065050663     -2.19869590394693
  H          -1.94493897712043     -0.89735322739418     -3.52615132275231
  Cl         -2.77829301753415      1.58973322122124     -2.46725988281595
  H          -1.24624254492929     -2.03990253739514      0.29214473240110
  H          -0.50129705198707      1.10516325303787     -2.67284786030408
  H           0.30689965511011     -2.45879700515884     -0.42645189228678
  H          -1.96182932853344      0.54545330649784     -0.05216885920967
  H           0.21049103299861     -0.22248263600023      0.89297121424803
  H          -0.66177430122013      1.71461440609158     -0.33919246283076
  N           1.26436517240397     -0.06973475272784     -0.88555588702228
  O           1.74281032376443     -0.93854436795195     -1.56794811847067
  O           1.73808768057840      1.02789410938980     -0.71745664767765
