18
Coordinates from ORCA-job R E -32.337579548890
  C          -1.23528198654639      0.15390772468176     -2.88727548470555
  C           0.09358364111433     -2.39159474627804     -1.97367433509307
  C          -1.16949276062251     -2.03922123715306     -1.75476306134607
  C          -1.84333740373524     -0.87578956594520     -2.30298398402982
  C          -0.98089491378823      1.48469635299948      0.13466850519327
  C          -0.30920635460153      0.46412068299785      0.63853724696586
  H          -1.79009533594862     -2.66228782065529     -1.12347194559605
  H          -2.92022768870956     -0.86096878244349     -2.20181897672233
  Cl         -2.10845901829848      1.50335777147328     -3.49445084483355
  H           0.51627820894073     -3.26855550907409     -1.51549309093276
  H          -0.16751171433858      0.24145719869544     -3.00816639158141
  H           0.74928314575231     -1.82268711932384     -2.60930908494056
  H          -1.89398399775309      1.83855009553671      0.57807830951383
  H          -0.58324807962363     -0.09823654315430      1.51821508994582
  H          -0.62346931128160      1.99120699276352     -0.74746524778105
  N           0.90946337684939     -0.00009244372356      0.03456496822975
  O           1.49129024592993     -0.89457057425751      0.60819831730989
  O           1.27759994666078      0.52044752286035     -0.99507998959621
