18
Coordinates from ORCA-job TS E -32.329332234090
  C          -0.77423140706347      0.73183027813708     -1.38357008761675
  C           0.51614218578701     -1.58915461604660     -0.24976249243264
  C          -0.80663245863431     -1.54176755678683     -0.51769228261750
  C          -1.43833949042806     -0.43164139514633     -1.12741076219953
  C          -0.32594355927353      1.30380504791440      0.68570144020809
  C           0.43145564935685      0.34434660430510      1.28272072529046
  H          -1.45406081160983     -2.31813704831526     -0.13444969331532
  H          -2.51548642159974     -0.44644318784010     -1.21198288170341
  Cl         -1.62463603552250      2.08563797930401     -2.02921633760576
  H           0.93677274294337     -2.39795397164033      0.32397566001923
  H           0.28800958956964      0.77698964322052     -1.56910044998231
  H           1.22215662270715     -0.96803951200529     -0.77106100730592
  H          -1.35905299906832      1.41896365425091      0.95974032747718
  H           0.06573939442216     -0.36852004657176      2.00204255093540
  H           0.17336828767790      2.16337111964717      0.26867272783430
  N           1.84566565180373      0.39925680048056      1.18320495677917
  O           2.48735130316627     -0.26917428493908      1.96942866934132
  O           2.33172175576568      1.10663049203184      0.31875893689399
