24
Coordinates from ORCA-job NEB E -32.322456086300
  C          -0.32856819158217     -0.47485948204743      1.13528682297489
  C          -1.04653044753963     -1.49348154632214      0.54205103832602
  C          -1.03999680951010      0.65349298995595      1.82693175407223
  H           0.60875209922194     -0.77785019171459      1.58285726190635
  O          -0.38069809957958     -2.67227269867907      0.33904913227801
  C           0.24641620786372      0.45848503367863     -0.71825666109837
  C          -0.49354112417018     -0.19011326990884     -1.68675092024856
  C          -1.89054134872152     -0.28643461927410     -1.51396536356102
  O          -2.11806509992747     -1.30633838375796     -0.14008110507732
  C           1.75044230330319      0.39822546202365     -0.74814190226170
  H          -0.16749487275775      1.37421430172339     -0.32104988870491
  H          -0.00639561255751     -0.96803788962916     -2.26325236598502
  H          -2.40383845088854      0.58881932276663     -1.13534170864392
  H          -2.46454886151869     -0.83465882155320     -2.24864306931605
  H          -1.95534343547315      0.91341732365290      1.30197431778100
  H          -0.40411377518053      1.53187542111949      1.91024320985929
  H          -1.30873445749605      0.34253690565106      2.83789400916626
  H          -0.90043938240740     -3.21710884514803     -0.26765158188625
  C           2.40999596242878      1.30212708321110      0.28603610356706
  H           2.07513456697832     -0.63451167867957     -0.60269582938088
  H           2.08445187818242      0.70108929574430     -1.74591747193823
  H           2.08863862006455      2.33298483850322      0.15047410971586
  H           3.49224593797735      1.26687845170397      0.18387021644799
  H           2.15277239329000      0.99152099697979      1.29507989200726
