24
Coordinates from ORCA-job NEB_product E -32.387241070290
  C           2.75960586945693      0.74956573694067     -1.01021607434442
  C           1.58581080015125     -0.18221383083808     -1.23828307164151
  C           2.45114377630312      1.61550691102504      0.20975425774414
  H           3.64208305928070      0.12799904267196     -0.83826906309174
  O           1.98518452670377     -1.41867923203557     -1.57081183376202
  C           2.97471289757668      1.59686908192552     -2.29489869617990
  C           2.38063185969189      0.90090324776756     -3.48799123062800
  C           1.35666865859113      1.35596425959483     -4.18415990402567
  O           0.42547079431231      0.10837111029181     -1.13410619408077
  C           4.46130282586930      1.85016862434155     -2.58711537855040
  H           2.46325685732462      2.55418498050949     -2.15987173921558
  H           2.86463295791751     -0.02692180057809     -3.76630426487251
  H           0.85818684552089      2.27492497013027     -3.92361715654332
  H           0.96464979235142      0.82734890049308     -5.03651637271720
  H           1.47691640119157      2.08170329938469      0.08198662997149
  H           3.19897440403091      2.39000284721301      0.34223122086545
  H           2.41955463708831      1.00293267751107      1.10863959209217
  H           1.21723466420696     -1.98966791442548     -1.73196694409918
  C           5.18413533370091      2.68049453289883     -1.53420634918235
  H           4.96901429925815      0.88934752794716     -2.70086395426679
  H           4.52235217707781      2.36887851989475     -3.54746893708601
  H           4.66445187594956      3.62066679031318     -1.36294124989594
  H           6.19296676677322      2.90731639778311     -1.87271962255475
  H           5.25985791967105      2.14323331923964     -0.59268366393519
