79
Coordinates from ORCA-job A2R E -102.346685477780
  Ru         -0.03603093905500      1.97448819753771      0.10510048111991
  H          -0.34577436304264      0.45540559433605      0.25925737881417
  N           1.20753087172518      1.47271526132031     -1.47172171319506
  C           0.74114335061586      1.45826188842107     -2.73563841669517
  C           2.53328913618956      1.32304417200715     -1.28876245788608
  C           1.58498093026016      1.45135195576803     -3.83549454875691
  C           3.42633204859454      1.31693469360043     -2.35104545465260
  C           2.95687468012367      1.42293912734333     -3.64885460150587
  H           1.16386473902941      1.46822237940732     -4.82937548562051
  H           4.48365158778357      1.22590775542752     -2.15346123978493
  H           3.63543078940243      1.44861898083479     -4.48729951222606
  P          -1.58780223156242      2.27123322862395     -1.54836437699903
  C          -3.29762034893199      1.43317149477296     -1.52778491820227
  C          -1.78113052081923      4.01209998556434     -2.31457444992830
  P           1.83995980366160      1.73751299460621      1.33960644059736
  C           2.79875521798086      3.13630204012055      2.08431777963214
  C           1.92930637190019      0.49908422542459      2.70721485316924
  C          -0.74128817041576      1.36857178772189     -2.92406707158463
  H          -1.01596858458479      0.31391239168094     -2.79477321770096
  H          -1.04772694359343      1.69027841454497     -3.92233581113537
  C           3.03629829083373      1.07609072732388      0.10016819457933
  H           3.06086906289625     -0.01338561375664      0.24773145717521
  H           4.04819921264000      1.46760926527772      0.23877630908410
  C          -1.12175435918804      2.43094494022069      1.52037133126050
  O          -1.79882136772558      2.70007985038112      2.42139457793804
  H           0.40090667047953      3.43884599783662     -0.09605239289489
  C          -3.88216868725329      1.06688828018183     -2.89246724070527
  C          -3.12114894085970      0.13961869447462     -0.73047168228499
  C          -4.25672618421873      2.32760437949747     -0.74169202842872
  H          -3.23243577143485      0.37897036138549     -3.42903869032928
  H          -4.83868138069081      0.56687049663306     -2.73761080606474
  H          -4.06295403844429      1.93294289583071     -3.51776692319486
  H          -2.79297044641542      0.36594048785808      0.28233956700997
  H          -4.06727497020576     -0.39942911932852     -0.68131413323490
  H          -2.37849222818484     -0.50852343452700     -1.19120849489673
  H          -3.76128278120450      2.69074282379367      0.16031133843271
  H          -4.59604831669546      3.17713433431354     -1.32843042419463
  H          -5.13628082900582      1.75840877807034     -0.44116188566721
  C          -0.39901708872294      4.40617732597868     -2.84656601428347
  C          -2.77673274405936      4.14954969435535     -3.46470691099352
  C          -2.15859628271129      4.97008423004089     -1.18361711241433
  H          -0.15723310288402      3.88547161274031     -3.77126719899652
  H          -0.37435308409904      5.47638525924405     -3.04945853337083
  H           0.37174901435869      4.18979683955763     -2.10835675879991
  H          -3.80392989630427      4.03479314659463     -3.13136600373412
  H          -2.68167802059732      5.15008874739635     -3.88775364922905
  H          -2.57393185747268      3.43564592151308     -4.26072880894027
  H          -3.18921467457417      4.83582746080698     -0.86823117179303
  H          -1.51097603182343      4.79807848118023     -0.32412725867433
  H          -2.03644580858754      6.00308460340621     -1.50810935737538
  C           3.29292421362583      0.19399909744777      3.31467802194519
  H           1.23128113067277      0.85235643391695      3.47587475301309
  H           1.50128814617905     -0.40976369543519      2.27564638743333
  H           3.68294549071393      1.04151317164904      3.87283372270877
  H           3.20193299352860     -0.64420247973642      4.00371773434623
  H           4.00817083741360     -0.08289531750749      2.54349126245758
  C           3.04255129226131      4.28422007146374      1.11685099765439
  H           2.21977065209275      3.48652561815217      2.94565571957489
  H           3.75330618348459      2.73862886116302      2.44261474442737
  H           2.09459192699011      4.69012114126517      0.77168192578877
  H           3.60475960429984      5.07947056376046      1.60388053167936
  H           3.60428663477479      3.94736354098997      0.24597927028372
  C           1.28096587288277     -2.29713839633798      0.00000205660718
  O           2.43293251249768     -2.02371815074293      0.27214494004045
  C           0.78277223408525     -2.20176926619610     -1.39535563360672
  C          -0.54407464048800     -2.44094182331773     -1.74818934844269
  C          -0.94190229693478     -2.33348101203682     -3.06850456753877
  C          -0.02518694793479     -1.99652231041681     -4.05259410218262
  C           1.29734143275645     -1.76281495547251     -3.71270293019570
  C           1.69548118159467     -1.86179073105819     -2.39432109718302
  C           0.30493174871150     -2.73727009861070      1.05590018401940
  H          -1.27204918785696     -2.70548982115051     -0.99779178969736
  H          -1.97364205941491     -2.51749947609974     -3.33358112896914
  H          -0.34242257426676     -1.91840869005189     -5.08250384939379
  H           2.01687920181599     -1.50674158257985     -4.47611756988447
  H           2.72358883502051     -1.68451685213165     -2.11415905080295
  H          -0.18898187446297     -3.66288964025355      0.77079631333700
  H          -0.44734392992767     -1.95831178210479      1.17951276906220
  H           0.82775060277801     -2.88052645591261      1.99882678108030
