79
Coordinates from ORCA-job A3R E -102.315974285950
  Ru          1.11965876782071      3.71659773377593      0.13050581350391
  H          -0.27850339778672      2.57445104154198     -0.05171373758914
  N           1.80664332612715      2.60238260438454     -1.51454823733030
  C           1.47453010379635      2.90233436274029     -2.78066138161833
  C           2.62250592103830      1.51257236649388     -1.27254629631393
  C           1.96298148561708      2.21954474923626     -3.87120950368660
  C           3.15286263597253      0.78622601894205     -2.38606891666765
  C           2.84112973193489      1.14330036200707     -3.65853111073893
  H           1.66655334558021      2.50279106120453     -4.86851923474766
  H           3.81108177559251     -0.04353559286793     -2.17769683553431
  H           3.24746721657920      0.60567959380100     -4.50303039997742
  P           0.54413235035793      5.17314715461380     -1.56629574878990
  C          -1.14343212027185      6.03581041842748     -1.64155502496077
  C           1.90100578750673      6.38704124656948     -2.10976190612080
  P           2.32468380220251      2.15353628273906      1.33320718493348
  C           3.87601140267624      2.73727536064515      2.17972204562051
  C           1.68385727532415      1.11657151818219      2.74216642861929
  C           0.47108127983815      4.00715379780709     -2.99335171239308
  H          -0.53130066949504      3.55856240166950     -2.99899159516091
  H           0.62285371102692      4.50145141496391     -3.95623723032163
  C           2.87044961846898      1.10475293347473      0.02564009336057
  H           0.67059759386294      0.45630194819674     -0.01653214562693
  H           3.54961924754411      0.28608465761123      0.21887831861068
  C           0.40897306118988      4.57837919305703      1.59114193600541
  O          -0.07377335274075      5.08089418240886      2.51518258809878
  H           2.38231566926872      4.52597906359707      0.26986998508658
  C          -1.68616290246516      6.30812753223680     -3.04315697419107
  C          -2.08957445529324      5.06358557882629     -0.93360214819914
  C          -1.08968581482203      7.31994632110232     -0.81604589108185
  H          -1.81309675259153      5.38585936737324     -3.60584988716284
  H          -2.66495768595782      6.77978655588491     -2.95508449352652
  H          -1.04708777434577      6.97535094935907     -3.61063519448278
  H          -1.75518765920427      4.89876889846924      0.09279038344382
  H          -3.09944900128025      5.47186478520629     -0.90271231071776
  H          -2.12790149712664      4.10939287148465     -1.45760815281601
  H          -0.56821535704911      7.13543621186579      0.12376142753916
  H          -0.58827622740815      8.12214092755779     -1.35021115888711
  H          -2.10048817599695      7.65561019668670     -0.58565745918745
  C           3.11890103301646      5.52904194316824     -2.46958829306628
  C           1.55273035242545      7.25873997078718     -3.31527160178665
  C           2.26874613576228      7.27251142683697     -0.91660999507577
  H           2.96364328871820      4.97345993576889     -3.39187866009744
  H           3.99069759856583      6.16769472666478     -2.60575281968146
  H           3.33939050209038      4.82231113352440     -1.66864799048742
  H           0.79098200106799      7.99551785908593     -3.07556978416790
  H           2.44637743021708      7.80022477921712     -3.62496802186098
  H           1.21937159461250      6.66234388879246     -4.16233085642037
  H           1.52573736185673      8.04357934568408     -0.73949684160936
  H           2.35908330076371      6.66374321100882     -0.01555790663225
  H           3.22370161943799      7.76281403554014     -1.09955044612257
  C           2.32250670594604     -0.26324118527178      2.82494150958117
  H           1.87714063451830      1.69223396869375      3.65343703391987
  H           0.60399737673052      1.00430382357125      2.63701919940006
  H           3.40857151459304     -0.19992301234187      2.85500075636418
  H           1.98670754295903     -0.77545428613549      3.72516366835010
  H           2.03376106118118     -0.86283519738157      1.96494823474980
  C           4.88405833785320      3.34846284753121      1.22105407214054
  H           3.58368298063105      3.46501037246069      2.94294198735139
  H           4.31682717345184      1.86821202740400      2.67995985536629
  H           4.46920499398927      4.24445108399010      0.76148608648022
  H           5.79869857462889      3.61853534804248      1.74600659265208
  H           5.12921941401329      2.64191300312866      0.42942292423914
  C          -0.92420393430329      1.61704199475313     -0.01337522127896
  O          -0.17038974941200      0.53608257004230      0.46388386512414
  C          -1.44703568558518      1.35205702841507     -1.41613719037528
  C          -2.72094651670168      1.74162693761686     -1.82010344540603
  C          -3.15013010529036      1.52132857830669     -3.11769169097973
  C          -2.32109048369437      0.89910240859417     -4.03463961870563
  C          -1.06662650280140      0.47486086132770     -3.63485491416459
  C          -0.63699760463330      0.69486269276973     -2.33864231327289
  C          -2.01988802152704      1.86003216036047      1.02297413875135
  H          -3.39851672426871      2.20946693663401     -1.12355243209071
  H          -4.14107973581594      1.83708472633190     -3.40997063383771
  H          -2.65594904208762      0.73448223967371     -5.04790893754795
  H          -0.41270703294062     -0.02832974203480     -4.33120929971723
  H           0.34306335415529      0.33892433448448     -2.05673581584599
  H          -2.68551930632018      0.99994858720646      1.05010996509212
  H          -2.58779381438241      2.76012220947131      0.81172793307692
  H          -1.55479988891256      1.96889835500050      2.00071539060036
