79
Coordinates from ORCA-job TSA2R_3R E -102.303067842810
  Ru         -0.03698943632537      0.49950945245810      1.10565284415116
  H           0.09851596046345     -1.30065147893684      1.04380814385829
  N           1.25842723321292      0.31137976418179     -0.55064364534751
  C           0.82177427415179      0.33646858301390     -1.81316585279958
  C           2.58633897894615      0.15546488626013     -0.30389549045364
  C           1.68724780637252      0.36846906977022     -2.89448580361275
  C           3.50729160286903      0.20538766227565     -1.36911261766130
  C           3.05881407121000      0.34257018348219     -2.65872243732755
  H           1.29695485745756      0.40078252625454     -3.89918466564685
  H           4.56079551236225      0.12350454131210     -1.15038009687773
  H           3.75460887842653      0.39674557585640     -3.48271937751340
  P          -1.55567950805765      0.92728805726603     -0.58154942335131
  C          -3.25201997601026      0.08501987055697     -0.66216331295753
  C          -1.73948679553464      2.74748813342077     -1.11144880170999
  P           1.91459921612700      0.44087414126751      2.31600864342481
  C           2.74519014515936      1.99503163512225      2.89633687174821
  C           2.17338544327223     -0.60606829924280      3.81665338558513
  C          -0.66082277223563      0.22120635894142     -2.03608348377954
  H          -0.89507663435739     -0.85126152184780     -2.06692757093852
  H          -0.96539680661264      0.66246703970638     -2.98792200467046
  C           2.98828436415497     -0.21619726039191      1.02505958847685
  H           2.49872653021454     -1.47018005778045      1.17039930930391
  H           4.05863554022990     -0.20174212444268      1.22004705818120
  C          -1.17102671912462      0.56194954095796      2.55339459608392
  O          -1.88184191195238      0.58670201719374      3.46491370967757
  H           0.15617964044993      2.00715292876436      1.17085903949824
  C          -3.79222083264860     -0.18833418526671     -2.06458473211369
  C          -3.02705046272108     -1.25326601543080      0.04235809827608
  C          -4.25415952140677      0.88597225850685      0.16788268149639
  H          -3.12725367855635     -0.84246213532920     -2.62420603508355
  H          -4.75467102131066     -0.69229309041432     -1.97654109747253
  H          -3.94634222837451      0.72113309302378     -2.63443252546260
  H          -2.70824814413155     -1.08491879155737      1.07324435928013
  H          -3.94816829938518     -1.83520840246936      0.05784967769013
  H          -2.26575382158779     -1.83573384726639     -0.47390116076655
  H          -3.79596120883187      1.19074152071954      1.10947527012117
  H          -4.60660612279631      1.76807679513064     -0.35943568170432
  H          -5.12178784936953      0.26745656091929      0.39603168075193
  C          -0.33880684446862      3.22662223573149     -1.50892014045493
  C          -2.67805473504195      2.99394973570766     -2.29177138226545
  C          -2.20471988925911      3.55858900336790      0.09974615087059
  H          -0.02035522241227      2.80475599370366     -2.45971463868350
  H          -0.33623072973315      4.31133028983983     -1.60716473251274
  H           0.38878986084416      2.95675977892387     -0.74335711882915
  H          -3.71609510921443      2.81064582776497     -2.03022256533170
  H          -2.59548444453974      4.03892608192643     -2.59027761626106
  H          -2.41361057202858      2.38415433582288     -3.15343424722686
  H          -3.25682859723779      3.39915833439226      0.31297923612871
  H          -1.62584726702440      3.27660930663916      0.98009691003052
  H          -2.05726317298445      4.62156987094929     -0.08532630905716
  C           3.57551103222392     -1.18271262568206      3.96287604972823
  H           1.91051428971803      0.02632157418450      4.67280792291526
  H           1.45393357451759     -1.42593381778149      3.77167145538414
  H           4.34039168402844     -0.41205447816825      3.88830556499968
  H           3.67524579346892     -1.66582641820940      4.93325402526229
  H           3.74501218747414     -1.92875662551863      3.19117098288302
  C           3.01876948560910      2.97206017530236      1.76433608364938
  H           2.08766039960594      2.45345671326290      3.64094951244658
  H           3.68030148225632      1.70896069057452      3.38886945666413
  H           2.08580120582916      3.23519980415302      1.26734959450070
  H           3.47652716523252      3.88306010118587      2.14555383579811
  H           3.68705908151750      2.53167118997620      1.02580184377892
  C           0.53553511386706     -2.47152064647024      1.06325465844353
  O           1.80732406301036     -2.51665163806812      1.47301325064984
  C           0.34839891132854     -2.96204816468197     -0.36895946871617
  C          -0.78134004963095     -3.65661916066756     -0.79244452723593
  C          -0.91520560664606     -4.05182640375962     -2.11299324610111
  C           0.07992291885442     -3.77444225680579     -3.03414395808665
  C           1.23273416828324     -3.13581049014674     -2.61196682854025
  C           1.36677041099602     -2.74528553365694     -1.29259191534937
  C          -0.38136925216023     -3.18882523445357      2.06566625378980
  H          -1.56088728427878     -3.91849150627629     -0.09426825791528
  H          -1.80390215147058     -4.58467421017308     -2.42101093237405
  H          -0.03275972949802     -4.07532636060134     -4.06559561732959
  H           2.03525275599409     -2.94268062775864     -3.30932254703296
  H           2.28679170429020     -2.28490919427507     -0.96734423238005
  H          -0.17602348610286     -4.25713255502486      2.02417566380774
  H          -1.43456913453311     -3.00702971192575      1.87259394772517
  H          -0.14810031443395     -2.83576836928922      3.06788874187337
