79
Coordinates from ORCA-job TSA2S_3S E -102.300506695620
  Ru         -0.09221528190952      0.46903705288768      0.42017641850405
  H           0.07576317519614     -1.37647000703881      0.29034149871690
  N           1.34585581266483      0.32975606552881     -1.12403163371250
  C           1.02070526060402      0.41243645808307     -2.41796338713631
  C           2.64941839098452      0.22203234089064     -0.77004923286724
  C           1.97584155256163      0.52093897634183     -3.41484876327547
  C           3.65791146834278      0.34185623399447     -1.74181715661879
  C           3.32170058255652      0.51926311964753     -3.06053318035581
  H           1.67482058278014      0.59404159666694     -4.44817950077157
  H           4.68979604506514      0.28233796122153     -1.43291681226905
  H           4.08437227767500      0.62625047346876     -3.81730218029107
  P          -1.47178657776848      0.91601190933471     -1.38465527459423
  C          -3.14086859796589      0.05368353556243     -1.66926642051092
  C          -1.64439478786794      2.75553167882533     -1.85060690238060
  P           1.77096844643272      0.45821638008002      1.78521715777076
  C           2.51746492689414      2.05399138927672      2.37728100956661
  C           1.99929179507058     -0.53330251142819      3.33381102443899
  C          -0.43422809728021      0.28648181018911     -2.77806935966221
  H          -0.65404574182825     -0.78481816047994     -2.87317838419885
  H          -0.65795977095325      0.76637393180023     -3.73398467106317
  C           2.94484905675587     -0.18859389630048      0.58479072320680
  H           2.50428602362515     -1.44713652198982      0.47620570012637
  H           3.99578616257013     -0.15764557287227      0.86482920027965
  C          -1.34502425153649      0.60275232479706      1.76156273354453
  O          -2.13100824928647      0.75649960049928      2.59578444586209
  H           0.09068418385327      1.97238790742299      0.49810562087938
  C          -3.60751453363148     -0.07492524436344     -3.11848923260646
  C          -2.93998694567840     -1.35427587479729     -1.10709609478751
  C          -4.19546057880892      0.75529683243867     -0.81409768263508
  H          -2.84703364162282     -0.53582116443730     -3.74460389039115
  H          -4.48853692575598     -0.71636451666686     -3.14336455530426
  H          -3.88473292012469      0.87835901220620     -3.55303807460124
  H          -2.56493890780504     -1.29881428131587     -0.08338535560555
  H          -3.88435564765596     -1.89733289573744     -1.09594457728447
  H          -2.23640665864855     -1.92036421770223     -1.71297112027606
  H          -3.79379180071492      0.95916073406929      0.17955079216987
  H          -4.52161729322629      1.68973233718194     -1.26255732252599
  H          -5.07169191792262      0.11706327667043     -0.70428766210909
  C          -0.22929044281556      3.27049641177286     -2.13660074232202
  C          -2.50676418812574      3.04081664398330     -3.07916133164128
  C          -2.20371948857170      3.50916172656148     -0.64246868347939
  H           0.14865659293422      2.90854920526059     -3.09020014670387
  H          -0.23585413715266      4.35906124363994     -2.17137225504853
  H           0.45742737941121      2.96476528215469     -1.34796425296535
  H          -3.56142195474821      2.87608239098458     -2.87872669768241
  H          -2.38701869004837      4.08877624849228     -3.35359648091468
  H          -2.20551521398997      2.43946446270007     -3.93435879371301
  H          -3.25468511593464      3.29057098935290     -0.48143061613630
  H          -1.65362663579307      3.23295494159810      0.25754594531750
  H          -2.10268875918633      4.58280309594086     -0.79460552695866
  C           3.38325278899636     -1.14650468845109      3.50386386885409
  H           1.76739695661726      0.14338606392527      4.16384420634691
  H           1.24768776108530     -1.32444402373158      3.33963595495169
  H           4.16419918281029     -0.38914959790596      3.47111126760916
  H           3.44198078274070     -1.65460156260068      4.46478401824081
  H           3.57085837702179     -1.87716112489467      2.72132589622820
  C           2.84771337011975      3.01781933584230      1.24923295313286
  H           1.79824151786286      2.50974874564517      3.06471260658573
  H           3.42264446883605      1.80217127651855      2.94015124512207
  H           1.94639706858934      3.25553520710184      0.68588189583174
  H           3.25991187589887      3.94390221210639      1.64594363251767
  H           3.57366438112288      2.58020153092301      0.56563860687213
  C           0.57835449752202     -2.51224127531497      0.38618097277215
  O           1.86920038804812     -2.51712813063220      0.06403194856560
  C           0.26495618260420     -2.97294645677870      1.80071652257723
  C          -0.89371727376958     -2.60694738188250      2.47033158392677
  C          -1.15622614316282     -3.09780002322865      3.73621587289470
  C          -0.26342926551175     -3.96574515441263      4.34382932924224
  C           0.88933472635216     -4.34425006058998      3.67717004027656
  C           1.14857861539867     -3.85496794181575      2.41002898737541
  C          -0.21429406593314     -3.42119473446807     -0.57244714967318
  H          -1.58921059508291     -1.91748929393601      2.00618264970561
  H          -2.05685015317170     -2.79728828762325      4.25158382320454
  H          -0.46661904886691     -4.34391146194387      5.33521265061560
  H           1.58846473929251     -5.02243330168313      4.14505566400629
  H           2.04394137999771     -4.13554393982162      1.87454630470755
  H          -0.09950653645832     -3.07570294446812     -1.59791527963290
  H          -1.26475274949943     -3.47527282628185     -0.30125650002268
  H           0.22041080892013     -4.41717087599468     -0.50307188781790
