15
Coordinates from ORCA-job NEB_product E -30.487823200500
  C           1.57551068296506     -1.31135824686805     -1.11424193867598
  C           1.28305667499487     -1.03283291133411      0.34538566628929
  O           1.13360447346188     -0.26033785636479     -1.90776335676888
  H           2.65605815260137     -1.41275350460925     -1.27307688601415
  Cl          2.12381396235436     -2.10351782941422      1.44180329021496
  C           0.89051641030813     -2.65943449708236     -1.45979954609402
  C          -0.58790600491103     -2.60241233484544     -1.29518324024207
  C          -1.25614395647085     -3.39086064369429     -0.47386062887257
  O           0.52685236551897     -0.20696908127858      0.74050922213614
  Br          1.32111105869748     -3.08153723062213     -3.33570990301361
  H           1.33352549627313     -3.46177072722816     -0.86760050630656
  H          -1.09536731084548     -1.87196464346508     -1.91057038084255
  H          -0.76213714741621     -4.13388556358862      0.13081365335661
  H          -2.32476407558321     -3.32224065464488     -0.37314776007887
  H           0.36576921805155      0.15827572503999     -1.49365768508773
