17
Coordinates from ORCA-job NEB E -33.023072936330
  C          -0.05591232538706      0.38103489671405     -1.43079253173188
  C          -1.42860893290702      0.31302260663054     -1.22008438165437
  Br          0.77052521588972     -1.14981478912873     -2.24079941607383
  H           0.37262643915142      1.29595828863664     -1.82138831067353
  I          -2.37237451012801      2.26566215678451     -0.96491622936918
  C           0.52458864680881      0.31323296246666      0.47794240581948
  C          -0.12964655308948     -0.83704153465496      0.91286915002474
  C          -1.54253805630799     -0.86263901614948      0.93397156952348
  O          -1.99508105700799     -0.66871485907729     -0.67991955698175
  C           2.03291411432229      0.36550275702053      0.47200934411859
  H           0.09533602704127      1.27808602737357      0.73440097305238
  H           0.40308591893390     -1.77567170886270      0.85207485721928
  H          -2.05464498125102      0.00394442462975      1.34387949854515
  H          -2.02100569222451     -1.80131491716447      1.17803298112155
  F           2.59111369538050     -0.88068870066763      0.44473268798230
  H           2.37844033909598      0.84546420090007      1.39659341738116
  H           2.43118171167920      0.91397720454895     -0.38860645830359
