17
Coordinates from ORCA-job NEB_reactant E -33.051696514990
  C           2.24254428370812      0.69775587985996      0.49115499724508
  C           1.56589727090550      1.18136293600088      1.52397622932502
  Br          3.05911411839339     -1.01371476244033      0.34121061585660
  H           2.37196874428030      1.28289534948699     -0.40175842396008
  I           0.78317978902331      3.14799790839176      1.31618601890346
  C           3.97560361859506      0.78908929625524      3.52709468397953
  C           3.27652350865218     -0.33311397464660      3.53148852444595
  C           1.80044623611020     -0.42836233531223      3.29279545103635
  O           1.22440785646094      0.74538525977826      2.73286867032992
  C           5.44744427999762      0.86337229310417      3.77136643723745
  H           3.51923709651471      1.75254934395355      3.34323189192193
  H           3.76097634507447     -1.27907352500847      3.72405343852125
  H           1.27801387673850     -0.54153577076942      4.24956423582791
  H           1.56807147961587     -1.30350641722400      2.67643678804143
  F           5.97915375433071     -0.35659240278148      4.09436900567312
  H           5.66763297354574      1.53995521164870      4.60652942874650
  H           5.97518476805340      1.21403570970301      2.87483200686859
