17
Coordinates from ORCA-job NEB E -30.376098843370
  C          -0.05896917688952     -1.48343081329126     -0.06312604919967
  C          -1.40726996682811     -1.24890636398647      0.08152405433798
  H           0.52829107806400     -1.58896634109780      0.83374085456961
  H           0.26025396091663     -2.08031865876589     -0.90435492252788
  F          -2.18027613537479     -1.44853044412026     -1.04265014347997
  C           0.50250431751308      0.41183690871159     -0.46636811102175
  C          -0.08126593883689      1.10251532144553      0.58303305509482
  C          -1.50160610169927      1.09552996522220      0.69240426996443
  O          -1.91051196813823     -0.46985269032196      0.95145033760041
  C           2.00244276488611      0.31350367160277     -0.56506116037870
  H           0.02549063490456      0.44770909549902     -1.43973153336346
  H           0.49748217821646      1.24196511216794      1.48479781787892
  H          -2.05881094637137      1.30171306043262     -0.21774834445453
  H          -1.92708539007611      1.57728882911963      1.56322392190817
  F           2.56923024332372      0.05842572297060      0.65780499630312
  H           2.42441306997706      1.26387560742257     -0.91522123908079
  H           2.31568737641268     -0.49435798301080     -1.23371780415071
