17
Coordinates from ORCA-job NEB_reactant E -30.400108208330
  C           1.95129506693402      0.09223662684395      0.00158611781577
  C           1.38733745566794      0.54181654086315     -1.10554237433246
  H           2.53775795694884      0.71228618409771      0.64865440177336
  H           1.82612435256931     -0.93744467110569      0.27325183538807
  F           0.66752328496229     -0.28806933027023     -1.88027737840091
  C           4.25929641726283      3.72622224129662     -1.78684201360182
  C           3.54329555860170      2.73624876540762     -1.28207793567400
  C           2.06554106364111      2.81374198822324     -1.04001203172812
  O           1.35708376448820      1.75999817396315     -1.66803150454644
  C           5.73382993983812      3.66842999130969     -2.02404297240411
  H           3.80831128756324      4.67116328670266     -2.05653019017366
  H           4.01567319237888      1.79687099810266     -1.03246739880097
  H           1.65366869403666      3.72667019737709     -1.47711330472783
  H           1.85633869228110      2.81041481873286      0.03917262462174
  F           6.27860239940889      2.48169824523603     -1.60882874665081
  H           6.24973746177733      4.46476844322630     -1.47260541449975
  H           5.95998341163952      3.76604749999318     -3.09349371405803
