15
Coordinates from ORCA-job NEB E -30.454582321040
  C           0.38766965177283      2.18142441273603      0.61400063283130
  C           0.88255603406728      1.24048887557161     -0.18386133361342
  Cl         -0.79415958842551      1.97214376016176      1.86902641656036
  H           0.62732000832880      3.21822928853517      0.44868296290415
  I           2.18458431916034      1.88192935630096     -1.72545981731006
  C          -0.66655447423951     -2.36346051344696     -1.09911360458093
  C          -0.82785415767212     -1.81927306813634      0.06640317070200
  C           0.18991631011207     -0.89713138633894      0.72613578341978
  O           0.82231659545456     -0.08026452252473     -0.24836125663682
  C          -0.11854708745871     -2.59420051967089     -2.28614103925993
  H          -1.94727791478814      3.89415551310935      1.83915401811454
  H          -1.70728529877827     -2.01241181320798      0.66813647513005
  H           0.98204108790214     -1.51932297949259      1.16624442977301
  H          -0.28727394920278     -0.30909870554793      1.51142293418633
  N           0.27254846376698     -2.79320769804854     -3.36626977222035
