18
Coordinates from ORCA-job NEB E -33.776451260680
  C           0.86791798836122      1.16850613577584      0.05026482794210
  C           0.68609265047620      0.89090131719321      1.40465615187569
  O           2.08145082714461      0.87177695195740     -0.51196573040943
  H           0.36442819752520      2.04791727221702     -0.33889017677522
  Br         -0.87334383268212      1.85565357991737      2.15121571546365
  C          -0.24292213682278     -0.44434103936654     -0.69724793495247
  C          -0.64115328134827     -1.18393379419657      0.40672380313110
  C           0.34262485835412     -1.64096807734918      1.29551078474767
  O           1.01288144587615     -0.15662755013446      1.99220125927885
  C          -1.26998820714493      0.15074228432576     -1.62254381307663
  H           0.65561778164274     -0.76863516083462     -1.20968270213920
  H          -1.64710665285962     -1.03827349915557      0.77987580452249
  H           1.28131526972741     -1.98568239547660      0.88139290839198
  H           0.03327497075966     -2.14963316685105      2.19670280035843
  H           2.21084148876494      1.37447604467854     -1.32242822329862
  F          -2.32032554297647      0.69545513540527     -0.93651337155203
  H          -1.68797379190903     -0.63375385058768     -2.26844661337318
  H          -0.85363203288903      0.94641981248185     -2.25082549013516
