18
Coordinates from ORCA-job NEB_reactant E -33.813056942160
  C           1.44095462499593     -0.11305737044532     -0.36049066737972
  C           1.14186901866291     -1.26821370748986      0.22933883976556
  O           2.05831200691093     -0.06672109756886     -1.57221230177730
  H           1.20394247408009      0.81847177946107      0.13384125593143
  Br          0.22852721504132     -1.16420276948343      1.93125526970787
  C          -0.64922968875287     -3.67006244041030     -2.66078813476897
  C          -0.47189925679527     -2.97392320304821     -1.55141758736369
  C           0.40359249376438     -3.40874928220069     -0.41941119640205
  O           1.47436716312070     -2.49264607212198     -0.18833574972557
  C          -1.51314411379439     -3.23990363650994     -3.80157243051635
  H          -0.17153855267225     -4.62849984518297     -2.80884015837658
  H          -0.95610652348514     -2.01413338147794     -1.42900392182067
  H           0.89249979914566     -4.36002158289892     -0.63534547125509
  H          -0.19175110172958     -3.50517371695240      0.50154460078658
  H           2.20066410580182      0.84715076316595     -1.83679626147996
  F          -2.09002662942076     -2.01584914321349     -3.58285683316820
  H          -2.33238665350783     -3.95229130826399     -3.96299464761020
  H          -0.92374638136565     -3.15287398535871     -4.72311460454706
