17
Coordinates from ORCA-job NEB_reactant E -33.304687671680
  C           1.13028415323432     -0.05291384150099      0.41986897527085
  C           1.47954472807120      1.21611241932685      0.60990191402830
  H           1.41946867234392     -0.84681945724340      1.08140340884635
  H           0.52737180936703     -0.30346491191870     -0.43367754328564
  N           1.04026839004870      2.23658904451263     -0.34988966587242
  C           3.20092621292568      1.96764039679187      4.80385227004354
  C           3.52445980966076      1.80827144105597      3.52710641484564
  C           2.75156762988373      0.94632439319908      2.58538873658599
  O           2.21107221641697      1.78693724198144      1.57029113419611
  O           3.85225275522573      2.73534630799999      5.69517871733752
  H           2.36895804405273      1.45230699471513      5.26325542770714
  H           4.35439997935945      2.34694065175293      3.09242675414669
  H           1.93870077183738      0.43019519300870      3.11050306926902
  H           3.40546034714589      0.19833438657537      2.11412941449970
  O           1.41427257018559      3.36663445146884     -0.16136773316524
  O           0.33579563852697      1.87093130301141     -1.26354031192968
  H           4.57449627171395      3.21063398526288      5.26336901747610
