17
Coordinates from ORCA-job NEB E -37.495547090340
  C           0.27646390435482     -1.18639036437282     -0.16112229232064
  C          -1.02317637587157     -0.57944639401919     -0.36503312180931
  O           0.39986451530358     -1.93407825222979      0.97536571553200
  H           0.68490538550319     -1.66145293204154     -1.06044521234766
  N          -1.31329859268729     -0.22035462363721     -1.75023034120845
  C           1.26427574015206      0.24495340637785      0.05884726018488
  C           0.64672301540053      0.98432373972736      1.11053264611003
  C          -0.62860958123631      1.51981705376378      0.89874114771839
  O          -1.56420526830621      0.12451390771641      0.53147190665068
  F           2.48155295296769     -0.28169417404831      0.36122386130316
  H           1.31894750927116      0.69185351047464     -0.93469665384244
  H           0.97651952279554      0.76431175932597      2.11546269885190
  H          -0.83659603116014      2.04541989329038     -0.02779510424518
  H          -1.14599373923996      1.93001819568933      1.75411097057774
  H           1.29575138971016     -2.28967890400574      1.04502917167515
  O          -2.05150186199722      0.72475711369615     -1.92470669123343
  O          -0.78162248496002     -0.87687293570728     -2.62675596159684
