17
Coordinates from ORCA-job NEB_reactant E -37.523700987740
  C           1.69570163086489      0.17418670118542     -0.08677009342324
  C           1.40724111483283      1.27819379468742     -0.79890047945012
  O           2.02449114766518      0.16405420734722      1.22496011068140
  H           1.66487867886631     -0.76761624625599     -0.61967267074826
  N           1.06442596257720      1.09645792818198     -2.19466761113667
  C           4.28377635816039      3.97261526013379      0.23962907624046
  C           3.52574829494459      2.93425708356376      0.53499460401288
  C           2.03940598755668      3.03761202233820      0.69343885958480
  O           1.34521016848064      2.58274574990784     -0.46309088251438
  F           5.60843263023074      3.85745463519288      0.09166489397161
  H           3.94488724066513      4.98974476702800      0.10484539034306
  H           3.96941881932682      1.95546708253018      0.63990010636875
  H           1.73293753385503      4.08097827525004      0.78688377453634
  H           1.71528091554007      2.47402011177808      1.57393541982504
  H           2.23674085457464     -0.73047837360418      1.51382025665992
  O           0.87081349134995      2.09014907846235     -2.85004982616858
  O           0.99360917050891     -0.04364207772698     -2.61262092878300
