17
Coordinates from ORCA-job NEB_product E -37.514173165000
  C           2.78636363113608      0.68610812084788     -0.37425358082471
  C           1.34099849967871      0.98679793284299     -0.65517860791295
  O           2.84177817568762     -0.24475666753383      0.66122805558823
  H           3.25340298142160      0.29324726327066     -1.29423498006841
  N           1.14321345704992      1.78554670026981     -1.97186569786219
  C           3.52152369379296      2.01106674712665      0.00480471022244
  C           2.78937908508398      2.74550609024342      1.08464715315910
  C           2.16783418346223      3.89120994728107      0.88107391573470
  O           0.37316772401778      0.72447198571603     -0.03519553556412
  F           4.77182159757534      1.62499923895963      0.45160917941300
  H           3.68200707973438      2.62575765986918     -0.88714723172284
  H           2.78391867179464      2.25567434244543      2.04747658557560
  H           2.17539916582768      4.38327513302021     -0.07826096873228
  H           1.62630749215004      4.38446664473416      1.66826258743276
  H           3.74635088830522     -0.27849963785715      1.00172614075700
  O           0.01357840949460      2.09716757267961     -2.22048597229299
  O           2.13305526378723      2.03786092608427     -2.61850575290233
