18
Coordinates from ORCA-job NEB E -34.425425625970
  C           0.94410185479813     -0.53904234240633     -0.69597783709087
  C          -0.33917868353158     -1.08225184525305     -0.51755237427226
  F           1.98806284021153     -1.11458843397471     -0.06144783463973
  H           1.25194155217716     -0.20645996160970     -1.68471957289552
  C          -1.40248445340011     -0.72771891503328     -1.54508352190043
  C           0.78034768690141      1.09458126166580      0.36263419142338
  C           0.45331319329163      0.52349132675402      1.60511709599430
  C          -0.77142476034774     -0.13127388902698      1.76174320093966
  O          -0.71112019829471     -1.47850041763169      0.64024488823292
  O           1.99519221328690      1.70020339404768      0.25766506056798
  H          -0.01816154421074      1.56011947531961     -0.21412689422254
  H           1.28315646014252      0.26744641474521      2.24597841059670
  H          -1.65736780548902      0.32986200382100      1.34195190836253
  H          -0.94657628625573     -0.65980787916065      2.68626181972655
  F          -1.06055273612767      0.39947757001949     -2.25916138423630
  H          -2.35873150221229     -0.52895451315112     -1.05071123317589
  H          -1.52760878517043     -1.53593532751069     -2.27398509243092
  H           2.09709095423073      2.12935207838537     -0.59883083097957
