18
Coordinates from ORCA-job NEB_reactant E -34.465603270060
  C           2.43360690839081      1.06445397635458     -0.32105022662168
  C           1.35086563823740      1.83448554156386     -0.31035061148267
  F           3.34680577048749      0.98811940095220      0.67298383926452
  H           2.68134707569719      0.42096515618370     -1.14802446914545
  C           0.40581959027187      1.82626218636117     -1.48863447912668
  C           3.16594059047585      4.38576622365730      0.48237514494979
  C           2.92893178798238      3.65728166267480      1.56324423924763
  C           1.64828644199119      2.91269522518291      1.80462141126492
  O           0.87914141174035      2.69048537548866      0.63266682174995
  O           4.30546736115675      5.06026788483852      0.21375662139057
  H           2.44048010426383      4.51029075775593     -0.30845948769104
  H           3.67608946283106      3.55022380567989      2.33665002804921
  H           0.98107691060146      3.49725175110112      2.44911724504461
  H           1.86152648239502      1.96256472719685      2.30821263806933
  F           0.76744177578351      0.91056136826488     -2.43407572928117
  H           0.39423388847011      2.80940945899772     -1.97285748168017
  H          -0.60652169000302      1.57382319190953     -1.15408039418810
  H           4.94496048922674      4.91979230583638      0.92380489018643
