18
Coordinates from ORCA-job NEB_product E -34.457500946300
  C           1.73227137845243      1.89464049949705      0.10206388494347
  C           0.55339783319140      2.24266538636783     -0.81316475794788
  F           1.30595764972901      1.05204713874256      1.09518134336880
  H           2.53353776953525      1.38124543203588     -0.44143170515921
  C           0.98649155788466      2.48191870744007     -2.24617040967662
  C           2.27619490896319      3.19130574461572      0.74756419113149
  C           3.37831924184272      2.84992515302663      1.71094375470987
  C           3.24110627847211      2.88244677124387      3.02218777653260
  O          -0.56764873596309      2.34456189414102     -0.41199936954103
  O           2.73220237167456      4.00293909072999     -0.31613902731669
  H           1.44180419552845      3.67311155542610      1.27976396056352
  H           4.30891081838877      2.56008812609841      1.24199047151484
  H           2.30991270943929      3.16099223999497      3.48645112556669
  H           4.04819183450349      2.61697789551566      3.68233064871730
  F          -0.05015944665803      2.91406860741413     -3.01955928974263
  H           1.35973483809929      1.55054116095511     -2.68814833749458
  H           1.76945132291049      3.24905962711059     -2.26330866614923
  H           3.14222347400601      4.79196496964441      0.05584440597928
