20
Coordinates from ORCA-job NEB_reactant E -39.868498264470
  C           1.98386789331587     -0.18916460403942      0.11563577920762
  C           1.48751059995681     -1.38739067443885      0.41774592916380
  C           2.08993157445040      0.37116692876643     -1.25822753137733
  H           2.32741027635576      0.44816371521986      0.91904997540918
  C           1.35678240599715     -1.82520963635453      1.85450656898388
  C           3.91934531005673     -3.94268571627288     -0.10264107617137
  C           2.66347799827198     -4.05781383549204     -0.50492697872112
  C           1.96841182673196     -2.98187078319435     -1.28564948484536
  O           1.00317720308682     -2.28721942320155     -0.48981999105553
  Cl          4.71928762365579     -5.14269316201469      0.82232756103879
  H           4.54087466763448     -3.08962353328552     -0.33599371641491
  H           2.06880736413540     -4.91857672010414     -0.23838016498080
  H           1.37847929456014     -3.41992044652501     -2.09383498302157
  H           2.69859390776180     -2.27725241521847     -1.69660464832550
  H           1.51421778617156     -0.21512469456733     -1.96962277204173
  H           3.13301342039679      0.40379268371005     -1.57519800962018
  H           1.71711195051787      1.39386508287675     -1.25732984273925
  Br          0.40475499346751     -0.49531637817983      2.92747396532341
  Br          0.40254665564607     -3.49223793450389      1.99493866299714
  Br          3.13769724782914     -2.06008845318059      2.67545075719083
