20
Coordinates from ORCA-job NEB_product E -39.877432013320
  C           2.50649221481883     -1.38305543832847      0.34698425817043
  C           1.28562451477596     -1.90300457063281      1.06733043828893
  C           2.07754720850606     -0.38795580506246     -0.73687287870324
  H           3.18443752150623     -0.89051072449101      1.04981514077877
  C           1.17276696409580     -1.55568398624842      2.55142551301054
  C           3.24714085066502     -2.57258557000665     -0.29208055343951
  C           2.53077635640247     -3.20130743896284     -1.43737216244794
  C           3.08796540499492     -3.38982945890073     -2.61973134843027
  O           0.38268832614273     -2.49177014037694      0.54885580697466
  Cl          3.47473630201601     -3.84356760305972      0.97994528884030
  H           4.25138288644428     -2.25706729155544     -0.58518682498363
  H           1.52109528284885     -3.52847166876397     -1.23553575987817
  H           2.55365652407051     -3.86284480625817     -3.42461968782254
  H           4.09874925820483     -3.08008758717339     -2.83057512469461
  H           1.32190194366451     -0.83285315005281     -1.37917100251517
  H           2.93819419088261     -0.11914931865864     -1.34372531203841
  H           1.67229764065187      0.51602639541733     -0.28870654901201
  Br          0.74898056548110      0.36026179460985      2.55005727646963
  Br         -0.29695679985269     -2.52754782387533      3.34133457353917
  Br          2.77172284368010     -1.82699580761937      3.59972890789307
