22
Coordinates from ORCA-job TS E -41.059621105350
  C          -0.74762955184508      0.37197010910525     -1.19377620855298
  C           0.59570643486441     -1.89089008693154     -0.01356026291942
  C          -0.73389895198396     -1.87636390368746     -0.25949390184817
  C          -1.39192246307083     -0.77857481097831     -0.86221891374484
  C          -0.15392532150812      0.96348846019113      0.90756258513682
  C           0.62271387271639     -0.00554788601879      1.45348937259437
  H          -1.36034305003635     -2.64664020156020      0.16886416787710
  H          -2.47387433628624     -0.79344337907647     -0.87726591639949
  C          -1.48927965143462      1.55289495932120     -1.73745825453370
  H           1.03946464572863     -2.68771269834786      0.55948460617808
  H           0.30959441520380      0.37885425707211     -1.40704326474752
  H           1.28124931525936     -1.29264028445763     -0.58452937291016
  H          -1.18691699574126      1.04163615735027      1.19312759761835
  H           0.25435411731233     -0.70887808818908      2.18012614541593
  H           0.29365774806038      1.82774560573399      0.44806229853644
  C           2.11007695672492      0.12695539631159      1.41622817008715
  F          -0.73293379490264      2.69457535386203     -1.63812380732586
  H          -2.42438485220522      1.74244840590663     -1.19942601833395
  H          -1.70295452579430      1.41940567515166     -2.80686111011990
  F           2.75506279683564     -1.01242156563834      1.71283321285115
  F           2.58245315255684      0.53718440852032      0.22603488107150
  F           2.55373003954592      1.03595411635950      2.31394399406912
