21
Coordinates from ORCA-job NEB E -46.513541554940
  C           0.37649421680090     -0.99634726721001     -0.40549451932104
  C          -0.96864500183399     -0.55957738937312     -0.77374483223363
  N           0.45131743221956     -2.03275203754015      0.48800478451371
  H           1.07509360496095     -1.10156934855422     -1.23421649474864
  C          -1.32679708470145     -0.19278694322054     -2.05562784479374
  C           0.93815137878585      0.56270528229125      0.40237339781096
  C           0.00441630901722      0.82302112055785      1.41122995839089
  C          -1.38944065843091      0.95762453954857      1.00263770902514
  O          -1.79854998388400     -0.23878164788176      0.23453051280994
  N           2.29200622369300      0.28153395063564      0.83842147035452
  H           0.90724341411771      1.20954430659156     -0.49002186105385
  H           0.27027129638337      0.67970973031882      2.44799970676252
  H          -1.52430462548199      1.80450259100802      0.31224002014159
  H          -2.09525923474310      1.01780842697982      1.82743621442050
  H          -0.27014295655832     -2.04706679681421      1.19683263170042
  H           1.36508997566685     -2.27601321179605      0.84517850932369
  Br         -3.12127079460869      0.25350309499909     -2.37121642459190
  Br         -0.39343500318720      2.38811427829563     -2.11085341433819
  Br         -0.39513544131343     -0.82176980160028     -3.55719875997299
  O           3.19843146926052      0.78204753811963      0.22293719171083
  O           2.40446546383716     -0.49345041535555      1.76855204408928
