21
Coordinates from ORCA-job NEB_reactant E -46.542190744950
  C           1.11993553067648     -0.03752691757866     -0.11911181963153
  C           1.46445302770274      1.26107576380994     -0.21993704478485
  N           0.64275953249021     -0.61167861539145      1.01831579694485
  H           1.27317978366296     -0.69847811906431     -0.95989273830962
  C           2.01092238670933      1.82607529455166     -1.48234703011320
  C           3.91343447491220      3.99095056636549      1.88901132447943
  C           3.53431223252636      2.79258206077737      1.46514744124490
  C           2.25371341944355      2.13264715700907      1.86863035508029
  O           1.28185266370053      2.14946430200485      0.82141588246769
  N           5.14516967654844      4.58351335742906      1.44466570938538
  H           3.35767637745148      4.61284402633027      2.57375902584151
  H           4.17251377027465      2.26347080018122      0.76630213973523
  H           1.77997897004009      2.68261979569605      2.68489378143442
  H           2.45623124179535      1.09941008170329      2.17845647298705
  H           0.26620936830555      0.01560160976964      1.71290503738365
  H           0.17126904952690     -1.49519838623471      0.92884643494662
  Br          0.92024515713907      1.34192778302388     -3.04129201291021
  Br          2.10706868284125      3.75285668152418     -1.39726046280629
  Br          3.85939497738424      1.12702869342214     -1.86898454942957
  O           5.83970078722258      3.95555961869449      0.67832015521883
  O           5.40187888964605      5.68225444597651      1.88445610083542
