21
Coordinates from ORCA-job NEB_product E -46.536405293850
  C           2.93965913614492      1.41114094036188      0.22650717581118
  C           1.51197571276261      1.49874235278847     -0.30156629300358
  N           3.15914357834354      0.18002542381779      0.94374246195845
  H           3.67797644381118      1.48645957719600     -0.57995003538883
  C           1.33707433140265      1.93964970255972     -1.74800214852663
  C           3.16554648816227      2.60952268512345      1.19273859915066
  C           2.20063460771094      2.63237462756285      2.33183813128563
  C           1.20703656731867      3.49752152732440      2.41509330710919
  O           0.55564823220280      1.17326420734829      0.34162345968626
  N           4.58548712776905      2.46848497638636      1.67425608706611
  H           3.13070346699034      3.54468450010876      0.62278625415917
  H           2.36447506527354      1.88775877685992      3.09621555034716
  H           1.03963085929192      4.25434481033447      1.66500952213925
  H           0.51459801287581      3.48162220422330      3.23714737628543
  H           2.40507172371031     -0.00339378871074      1.59692098474062
  H           3.25361697070609     -0.61148918428823      0.31983142051071
  Br         -0.54144514011115      2.18267227714666     -2.15206378884504
  Br          2.31049422734450      3.57479901170751     -2.13429739420184
  Br          2.06317850852459      0.47376687094851     -2.83227900082599
  O           5.42726693488057      2.48487164968174      0.81535731700929
  O           4.77242714488487      2.37157685151889      2.85349101353277
