22
Coordinates from ORCA-job NEB E -49.093748100870
  C           0.11290128891836     -0.46774441745162      0.98389849080544
  C          -1.21377398746333      0.01372161211590      1.03564588447812
  C           1.18999523325048      0.36244323026016      1.64807745599219
  H           0.25821104650810     -1.51755373539287      1.21531480824300
  N          -2.25450547263005     -0.88620641254295      0.96167052610488
  C           0.30933425576642     -0.33755966130320     -0.97999896428124
  C           0.03293995721050      1.00656053838199     -1.25389517977621
  C          -1.25841325059935      1.48481758066034     -0.90607761461348
  O          -1.46351257463823      1.23955319131124      0.71625268123675
  C           1.61765276370676     -0.92532649382775     -1.43250282465860
  H          -0.49320483755344     -1.04854996054119     -1.16863408900892
  H           0.84734563849715      1.70968308169751     -1.30841203498291
  H          -2.10189958681650      0.90006031869777     -1.26481928544642
  H          -1.41562082229367      2.55193648133586     -0.98945962954978
  F           2.36575606932556     -0.31095460408638      1.66344555048412
  F           1.43785138991424      1.55146404883827      1.06506536936571
  H           0.93519209466293      0.57320437553000      2.70328203664353
  H          -3.18118825469462     -0.49332793529643      0.99958339162788
  H          -2.13979951172869     -1.79425397528494      1.37710591834823
  Cl          1.44885736274327     -1.26135559247639     -3.19251117197576
  Cl          3.01272340846794      0.13415463737570     -1.22581048407674
  Cl          1.95315778944620     -2.48476630800103     -0.64722083495977
