22
Coordinates from ORCA-job NEB_product E -49.157046917250
  C           1.97335112005280     -0.44539385636046     -1.82738229689731
  C           0.69543055272393     -1.30320505213027     -1.81338497231677
  C           1.72189423508783      0.78773206107579     -0.94421270472224
  H           2.79801956784549     -0.99599136453991     -1.36640008583485
  N           0.91652658012165     -2.61592742563644     -1.59416078863247
  C           2.38523102814606      0.00400302320842     -3.24751611659384
  C           3.64521952145060      0.82728627540756     -3.16323210844151
  C           3.70584335194469      2.10136048811987     -3.49607324901408
  O          -0.40553650661964     -0.81917961931050     -1.90686626620182
  C           2.60844025145923     -1.16958765132175     -4.20377178944721
  H           1.57536662249584      0.61131261013993     -3.66650395635873
  H           4.51276020670640      0.30340281807827     -2.78717353071951
  H           2.84387733963632      2.63698648346170     -3.85689283770646
  H           4.61893524866182      2.66234176082419     -3.40396482208891
  F           2.88921659778550      1.23736730921751     -0.41816913287914
  F           1.19761990623419      1.82193350616954     -1.62750231657518
  H           1.04471835830185      0.56289459617235     -0.10618753595174
  H           0.12207807641262     -3.23494902353413     -1.63311980069423
  H           1.83341293813567     -3.02244904651812     -1.66814275281107
  Cl          1.07876253619224     -1.96595368498426     -4.64752546507330
  Cl          3.35853282296294     -0.57797202558691     -5.70908677780896
  Cl          3.69649964426199     -2.39241218195238     -3.50543069323069
