22
Coordinates from ORCA-job NEB_reactant E -49.129067997790
  C           1.89598984442219     -0.40942689392036     -0.67120577397779
  C           0.90957071552363     -0.43529713998994     -1.59220903023472
  C           2.91706253710893      0.62741272395859     -0.39674103890206
  H           1.94627739925279     -1.26001526544854     -0.01277352724431
  N           0.05125430153926     -1.51145386064726     -1.65519743466334
  C           2.67383971424968     -0.66552135784417     -4.11036127356662
  C           2.61744853382031      0.63810492895709     -3.88760877336133
  C           1.51414577526358      1.32180139592689     -3.14390819317365
  O           0.56865947685567      0.44958966238326     -2.55830411737237
  C           3.77389317646503     -1.37408112624231     -4.80839407176119
  H           1.89736549911835     -1.33336446427078     -3.76385548215567
  H           3.39686220894853      1.30054448078638     -4.23268575070510
  H           0.92351520623218      1.91843577505918     -3.84893757715498
  H           1.93866677595053      2.01407405860959     -2.41133082951309
  F           3.84656721913165      0.78792644927724     -1.39176480688098
  F           2.38179743356492      1.87900764571241     -0.23024982217451
  H           3.47850954913241      0.40076900516392      0.52044645744602
  H          -0.78168437521300     -1.34174380240992     -2.19705269388506
  H          -0.08664340556550     -2.03887884504753     -0.81003469268010
  Cl          3.10155139787671     -2.32596263220793     -6.16599419313101
  Cl          5.02673170401573     -0.30866384718509     -5.45065284442628
  Cl          4.54301931230644     -2.51755689062072     -3.66578453048191
