20
Coordinates from ORCA-job NEB E -48.275379369380
  C           0.54968146390548      0.75770743006854      0.30826126467844
  C          -0.73749836561214      0.32839390002836      0.69887164496255
  C           0.64614266278407      1.94507648019249     -0.63299149000822
  H           1.26951046146695      0.89548267306476      1.11364783233498
  C          -0.94594423569312     -0.17936151430864      2.09516087702560
  C           1.22441548152657     -0.67452168511941     -0.75443747659456
  C           0.17570757912237     -1.58655088803090     -0.95377023650061
  C          -1.06846539734519     -1.02997005910958     -1.38139901637844
  O          -1.58921406593598     -0.09630084432981     -0.17819432184012
  Cl          2.65519747025592     -1.26086436553465      0.05583948534384
  H           1.49889393159613     -0.05192976459657     -1.60011320533647
  H           0.16084140180026     -2.49350809735141     -0.36578939990760
  H          -1.89296794975801     -1.72686505061735     -1.48749256055012
  H          -1.01928569083504     -0.31921131350883     -2.20193823541095
  F           1.92764752607272      2.15918371318947     -1.00259216219435
  F          -0.05211654152105      1.78591688972142     -1.77737833913456
  H           0.28346352692179      2.86459729038028     -0.14370306640576
  Br         -0.38659413618653      1.13553961114856      3.41010678967004
  Br         -2.80861619946231     -0.60505503847548      2.36365701860916
  Br          0.10920107689712     -1.84775936681125      2.43425459763713
