20
Coordinates from ORCA-job NEB_reactant E -48.310392645440
  C           1.73997510821335     -0.19440054255158      0.05782591023462
  C           1.59796630048132     -1.49079376907439      0.36356322544215
  C           2.06174078537719      0.44057095607467     -1.25825078935980
  H           1.60442528913664      0.52559772436439      0.84841955402377
  C           1.29363940234986     -1.90692980402549      1.78502979550565
  C           3.57077805974523     -4.62533372747748     -2.35990954039923
  C           2.40321780738774     -4.11596810213499     -2.00359295880255
  C           2.22056625453714     -2.66644302070088     -1.68065586272543
  O           1.72585338841098     -2.61401554370949     -0.34143335136273
  Cl          3.78351547891304     -6.27934326107702     -2.74364332140537
  H           4.46998365700808     -4.03493538709494     -2.45842422345864
  H           1.52472298502784     -4.73524854544244     -1.90336567543672
  H           1.48339168116240     -2.22332451962613     -2.35920994180162
  H           3.17117602486119     -2.13308172675655     -1.75618823325627
  F           3.31377368770619      0.13520365039969     -1.69993664149527
  F           1.21795387852309      0.04988299197678     -2.25011079664303
  H           2.00134817616330      1.53584145024346     -1.19112503826926
  Br          0.37016156309009     -0.58902424652766      2.84819264578770
  Br          0.22032456184093     -3.51844319950374      1.78775910352109
  Br          3.01198591006440     -2.31121137735619      2.65195613990095
