17
Coordinates from ORCA-job NEB E -41.949537429900
  C           1.00348697300988      0.37538797029638     -0.38057708213125
  C           0.09863877649097      1.43530960925120     -0.25389663992475
  C           0.88692291189995     -0.45991973175155     -1.64020330479306
  H           2.04964466211546      0.56325689483133     -0.15918496783570
  I           0.75017407297932      3.06846610310399      0.99805239089831
  C           0.35898278345024     -0.76124679424709      1.08851290013085
  C          -1.00808291683394     -0.86703553942772      0.81801304424263
  C          -1.78957185400982      0.31310637386553      0.81733389135462
  O          -1.14414774057434      1.27790137296247     -0.38762513995245
  Cl          1.32620760262074     -2.20460409869449      1.06147447352370
  H           0.69112920150456     -0.08833178474767      1.87428526078593
  H          -1.36235236731056     -1.72437090017769      0.26659066377549
  H          -1.66088732762482      1.00112338113169      1.64908034376676
  H          -2.81781827039507      0.21740120013653      0.49489586077344
  F           1.80490903063208     -1.42885733761293     -1.69125383950693
  F          -0.29984841568164     -1.03454223851097     -1.83853107229498
  F           1.11261287772697      0.31695551959098     -2.71696678281261
