17
Coordinates from ORCA-job NEB_reactant E -41.979130402270
  C           1.73410303390696      0.04170284678994     -0.02978769552729
  C           1.12601926958145     -0.01215607932734      1.15839044699990
  C           2.06095622693734     -1.21382588308265     -0.76978565259652
  H           2.02533703740369      0.96309181170599     -0.49794933970836
  I           0.67787614337633      1.82405389167587      2.12815604551980
  C           0.01261199946645     -3.22202523662874      4.35027831030371
  C          -0.23648266864260     -2.69199449354041      3.16391308653304
  C          -0.03204235752478     -1.24097171932104      2.86482861161465
  O           0.83983659914019     -1.15455656796839      1.74535691687275
  Cl         -0.24045534617684     -4.87710796094144      4.69736175796645
  H           0.37275910767841     -2.64950499482115      5.19256674915921
  H          -0.58392192348912     -3.29354369096879      2.33790927326010
  H           0.40916515344382     -0.72405288477169      3.72597635500848
  H          -0.99456928319635     -0.77190506052517      2.61636735136912
  F           2.98512190674068     -1.96918103259567     -0.14802026916748
  F           0.99244549947152     -2.01219329709571     -0.94706737204096
  F           2.54533960188285     -0.94872964858359     -1.98919457556658
