21
Coordinates from ORCA-job NEB E -41.827066985920
  C           0.36086095386352      0.96816460576580      0.39076551538111
  C          -0.92483409670016      0.45125240193766      0.56312885900005
  C           0.58136606472104      2.06999238489233     -0.60981183745034
  H           0.96732926917848      1.05962257394832      1.28590846707181
  C          -1.17222016694695     -0.26648973997013      1.89840620289434
  C           1.22858160627415     -0.64102226443010     -0.52878839681458
  C           0.17144685449686     -1.47383554553754     -0.92358883102258
  C          -0.90007924461197     -0.94775660394825     -1.63036745143401
  O          -1.69135750058330      0.15628760523887     -0.40297635991830
  O           2.17101339819412     -1.07082965533119      0.33659635551839
  H           1.67088004532639      0.01463764140066     -1.26779106530359
  H          -0.01016717123344     -2.35281895488403     -0.31374989539599
  H          -1.74764253840330     -1.57810645719063     -1.84643733928505
  H          -0.71758263849965     -0.17121804398278     -2.35783421776952
  H           0.00261136523785      1.90368344876291     -1.51338001276224
  H           1.63412547490457      2.17976745577348     -0.85639100126639
  H           0.24590456252054      3.00627593372856     -0.16273453406479
  F          -2.42145099333737     -0.70162774108317      2.03775931099549
  F          -0.36875676906105     -1.35472665128127      2.04496008744516
  F          -0.89914323438552      0.52047782415389      2.95202395823957
  H           1.81911475904520     -1.77173021796343      0.90430218594147
