21
Coordinates from ORCA-job NEB_reactant E -41.863517960190
  C           1.76517847019164     -0.12451229015765      0.09732515678554
  C           1.59543881351632     -1.43587874628481     -0.05429532483636
  C           1.79010531424011      0.85252264841697     -1.02302562804930
  H           1.87654380110108      0.27086840762958      1.09674095086966
  C           1.57333894866247     -2.33014245773442      1.17387731699775
  C           3.04997288602748     -4.89348111988614     -1.29506110383502
  C           3.29489277717511     -3.59457322535567     -1.16773021237799
  C           2.54892645326475     -2.55056646924214     -1.93351921115893
  O           1.37991441447045     -2.06253969639425     -1.24801785910043
  O           3.65305380517995     -5.88291288119307     -0.61412785100744
  H           2.32709402347864     -5.27864930166905     -2.00009459893170
  H           4.01841520146679     -3.24503194920986     -0.44216461629440
  H           2.14277731549544     -2.96022534843329     -2.85947975389172
  H           3.20570613787180     -1.70106268635078     -2.15998728604778
  H           1.56383267404710      0.36349261164521     -1.96614836797993
  H           2.76965477605193      1.32614182078742     -1.08313328303076
  H           1.05655985241862      1.63589682888808     -0.84105552278307
  F           1.05115026072798     -3.53321447451686      0.94017942520918
  F           2.81326435364569     -2.54352869197924      1.67753271745590
  F           0.87241570056922     -1.78582488276335      2.18392702032190
  H           4.25226402039744     -5.51487809619668      0.04915803168490
