18
Coordinates from ORCA-job NEB_product E -33.372203958480
  C           3.05332615032854      0.67741354077770      1.73333417338727
  C           1.60128657866641      1.01634419759394      1.66477548782610
  I           3.32442874153801     -0.55727235246393     -0.03223114962288
  H           3.67145772914784      1.56074864301167      1.56916754102911
  Cl          1.27512435750838      2.32549193792250      0.52088636142009
  C           3.43484478629405      0.01228964983509      3.08292819465661
  C           3.27659209111464     -1.48271589534555      3.05468886628759
  C           2.21318096736085     -2.10576981228729      3.52521047424509
  O           0.71300756374562      0.50918067946451      2.26217088112726
  O           4.68348211921001      0.48149516433473      3.53236517063573
  H           2.73253774750318      0.42188532512498      3.82191808334284
  H           4.08796695384413     -2.03556637852598      2.60322639461189
  H           1.39132763073511     -1.57142453048932      3.97130169266164
  H           2.11780851780284     -3.17618367957308      3.46451888075875
  C           5.84325678618897     -0.01874606869844      2.89665327658858
  H           6.66032298471481      0.59872317983273      3.26562303741950
  H           5.79333531154914      0.07072103852002      1.80793290038935
  H           6.03901298274745     -1.06021463903426      3.16692973323550
