18
Coordinates from ORCA-job NEB_reactant E -33.364849918920
  C           1.99775981725229      0.61123326275156      0.55735650561825
  C           1.35707786869527      0.70601947150441      1.71562882446568
  I           3.16763515019253     -0.96499002140967     -0.18429173753439
  H           1.92406038037880      1.41631131079661     -0.14954453788206
  Cl          0.43799739638222      2.17044996846412      1.95110005659890
  C           3.94577492629631      0.35545699840531      3.49357449297538
  C           3.49704852711687     -0.85326985265250      3.17239137047554
  C           2.03649590600886     -1.17732050396712      3.05774881448963
  O           1.20681444635498     -0.04941213561241      2.80288884858568
  O           5.22202973234968      0.77088119577559      3.60705206478691
  H           3.27238030503042      1.17797749616436      3.69811215965365
  H           4.15790907982794     -1.68223339157696      2.97902545979059
  H           1.64752387119803     -1.56066848190018      4.00839928060394
  H           1.87654075003140     -1.94712570368176      2.29467582002132
  C           6.24049760778782     -0.16778626359905      3.34322864574615
  H           7.18013178094745      0.36783311883820      3.46279602766888
  H           6.16494464708702     -0.55447363337749      2.32235637550506
  H           6.20197780706211     -1.00258283492303      4.04950152843090
