20
Coordinates from ORCA-job NEB_reactant E -43.347143558180
  C           1.65912969452220      0.00005995923525      0.05565452493428
  C           0.81088702836339     -1.00636621445436     -0.09648122150909
  C           2.24549317631413      0.74592388998201     -1.10070222008266
  H           1.96731798033341      0.32290188309206      1.03623561910669
  I           0.03294005982251     -1.98189982835098      1.64588301184570
  C          -0.06444128971786     -3.79949830744761     -3.82289107030829
  C          -0.41557541477953     -2.89577776191685     -2.92194802676593
  C           0.25099041845920     -2.75265360129778     -1.59638496323276
  O           0.30482231288296     -1.37088473400735     -1.28188810510863
  C          -0.70661130223875     -4.01443555040385     -5.13688549391495
  H           0.75395170369516     -4.48450900165785     -3.63391340493341
  H          -1.22334184024866     -2.19735415088650     -3.09183640133277
  H           1.25924347727665     -3.18669857490983     -1.60207808385152
  H          -0.34835793224176     -3.28020243522636     -0.83579902832614
  F           3.58879235327640      0.94507448503118     -0.89991972857846
  H           1.79388045668667      1.74171376733107     -1.19308282755308
  H           2.13064721783611      0.19681071726881     -2.04018056273982
  Br         -1.40250776892395     -5.86181525501000     -5.22400388377276
  Br         -2.17039006016072     -2.80960463407903     -5.53882329554304
  Br          0.64842972884245     -3.81448465229203     -6.55915483833337
