20
Coordinates from ORCA-job NEB_product E -43.365229034470
  C           1.44331765316662     -1.42858553486235     -1.75875921593202
  C           0.98308156625160     -1.27814304727355     -0.33303638994431
  C           1.23634249671555     -0.08776557885470     -2.47534836245097
  H           2.52099725995634     -1.63841485495189     -1.76286518343875
  I           1.67895676204367     -2.86110161922991      0.97073672011063
  C           0.70431637722173     -2.65714785673865     -2.34724288893355
  C          -0.78551847522722     -2.53449962385689     -2.16840733007882
  C          -1.51049646633572     -3.44099744564743     -1.54010737140195
  O           0.31385734336050     -0.41346891365003      0.11129069741363
  C           1.04126927558879     -2.99255547261923     -3.80114700819480
  H           1.04961983840773     -3.52654065971564     -1.76914637034543
  H          -1.24945092789951     -1.65573656684696     -2.59353117265657
  H          -1.07520996595863     -4.32988966251932     -1.11268659815375
  H          -2.57434387733511     -3.32840545861941     -1.42982257837401
  F           2.08088788147624     -0.00448975264055     -3.54559139795982
  H           1.49267266239944      0.73842995256005     -1.80425296911438
  H           0.21731811294754      0.05095899117164     -2.84569269375470
  Br          0.34828353003302     -4.79810164846722     -4.16842509321150
  Br          0.22463056224698     -1.81775668667432     -5.11829725302974
  Br          2.97196839094042     -3.05098856056363     -4.10746754054921
