19
Coordinates from ORCA-job P E -25.315412631140
  C          -1.31172463035491      0.36737019748478     -2.36503329038881
  C          -0.01912635943593     -1.61277853598918     -0.99620902456184
  C          -1.40546384511851     -1.88552206996505     -1.48342387231102
  C          -2.03386901749711     -0.92716936326295     -2.14622084373909
  C          -0.71844827750694      0.85278159374103     -1.02828806745270
  C           0.02400092833386     -0.25904332114651     -0.26835341445880
  H          -1.85970743253905     -2.84179061751775     -1.27676041621809
  H          -3.04014033101332     -1.03283614239451     -2.52100967836254
  C          -2.22824907301740      1.42088531837105     -2.97378162814916
  H           0.33106367017632     -2.40109590455610     -0.32986275030235
  H          -0.48078272095637      0.19919146742046     -3.06277727003036
  H           0.65917570920658     -1.57293112490167     -1.85438803712700
  H          -1.53931949035112      1.22756065363130     -0.41366585368730
  H          -0.43234788357530     -0.38852233150943      0.71414019618430
  H          -0.05143561373075      1.69159442571098     -1.22927509925575
  H           1.06588234856761      0.02193111574817     -0.11021604735211
  F          -1.52310482579909      2.56058445519068     -3.28262828889056
  H          -3.01690043474744      1.71951613710480     -2.27467505987776
  H          -2.67306272064113      1.06721404683990     -3.91024155401907
