19
Coordinates from ORCA-job R E -25.216028077110
  C          -1.49273208900604      0.08072710104576     -2.86585217797780
  C          -0.18175104869231     -2.28378896856670     -1.50913486044531
  C          -1.48467132315626     -2.11071157895527     -1.70342259343294
  C          -2.11621273435746     -0.92957299367757     -2.26309950895301
  C          -0.59434522815879      1.25608199649285      0.00944447033987
  C           0.43408034120918      0.52288648368478      0.38056569137828
  H          -2.16868267072513     -2.89755009837085     -1.41149208384329
  H          -3.19647596392041     -0.90113074450384     -2.18433783397436
  C          -2.19809974189282      1.26130827508759     -3.44453883842582
  H           0.20531087730344     -3.19101712318788     -1.07832677748185
  H          -0.41972793527277      0.09525685874431     -2.98182203244552
  H           0.54161897798332     -1.52777203176062     -1.75847741933576
  H          -1.59764225792742      1.02975465279747      0.33153381020938
  H           0.32165883704093     -0.33695202478081      1.02085595823154
  H          -0.48573702998443      2.11326356429289     -0.63380714070271
  H           1.43940079248164      0.74736506295705      0.06227743170793
  F          -1.50418119439164      2.42121699015992     -3.17766623146154
  H          -3.20275839221145      1.38948116833806     -3.02910810068974
  H          -2.25452221632157      1.19050341020287     -4.53958176269734
