19
Coordinates from ORCA-job NEB_reactant E -30.532920534520
  C           1.63154765651355      0.39899457411134      0.01248768183299
  C           1.54294168381386     -0.70225802142139      0.75741894032985
  O           2.10107276006317      0.42818064362224     -1.26134204887781
  H           1.35488539839466      1.37191975476010      0.38126824081815
  C           1.03571821635320     -0.71596513366019      2.16622558677843
  C           1.22949139751903     -5.20940519046187     -0.80610301989685
  C           1.90920287479456     -4.18364435407788     -0.29751959236862
  C           1.28608786653989     -3.06214659717183      0.46421786523915
  O           2.01642437195841     -1.88606900747216      0.18787308849774
  C           1.85980498505511     -6.26656753904961     -1.49040665467640
  H           0.15370641338097     -5.28991966874166     -0.71278347386573
  H           2.98267872965666     -4.11817341208895     -0.40983462002304
  H           1.33755408355190     -3.30070503805666      1.53969212152787
  H           0.22755516541185     -2.93986929341990      0.19123478397708
  H           2.33925114999022     -0.47691692139085     -1.50632084352341
  H           0.88284820999510      0.30490341459923      2.50092097236965
  H           1.75834718921334     -1.19571412044556      2.82616948153419
  H           0.08818858694669     -1.24997391414957      2.24737568929893
  N           2.35979326084782     -7.13317017548481     -2.05037419897216
