23
Coordinates from ORCA-job NEB E -62.310967889330
  C           0.38766642003514      0.02003983417644      0.94026768218396
  C          -0.97979164964733     -0.33354686738011      0.92072045191602
  C           0.75471092414868      1.23362056735740      1.76623051513107
  H           1.06585349657713     -0.79908656312738      1.18115720817657
  C          -1.36318378794849     -1.81709522899210      0.91493823687771
  C           0.72101820083951      0.40289465787067     -0.94764000380311
  C          -0.52080749082883      0.41749618023695     -1.59882458648328
  C          -1.56630172172249      1.18166186901139     -1.02600022227535
  O          -1.86592262315144      0.45827294012670      0.42753470566522
  C           1.75723307615197     -0.54403650470159     -1.50349210078926
  H           1.15371855506318      1.38091973299004     -0.74115384684207
  H          -0.80915014815040     -0.45249342372245     -2.17660738002547
  H          -2.53856986706331      1.10446390718147     -1.49642737926975
  H          -1.33201833379283      2.19332321254826     -0.70937938520885
  Br          0.97086649521682      0.56309145182813      3.62354761860784
  Br          2.44912773955553      2.10908848749678      1.30902005468656
  Br         -0.57438637809807      2.64569734149018      1.84728510752973
  F          -2.35046500982768     -2.06450951500408      1.77705331971808
  F          -1.79482073588837     -2.19711652921545     -0.29802151594261
  F          -0.34058733551405     -2.61530895023470      1.24217736318283
  Br          3.34433101549477     -0.75654556195575     -0.38964023815953
  Br          1.06502093628903     -2.34274077850458     -1.83608052368133
  Br          2.36645822226152      0.21190974052376     -3.22666508119497
