23
Coordinates from ORCA-job NEB_product E -62.358211333560
  C           2.71001002735106     -0.34035489902599     -1.96560347205827
  C           1.31452152330992     -0.90427064977356     -2.22414842809595
  C           2.61929312620371      0.58637836672712     -0.74729136296285
  H           3.39196389199458     -1.15422892007380     -1.68442483106921
  C           1.12964780124984     -2.43783326000249     -2.01308524385070
  C           3.30510046667869      0.37936983977797     -3.20517363486737
  C           2.40854995291984      1.43122192484679     -3.79840609396045
  C           2.82784292656140      2.65932200023782     -4.04756855714088
  O           0.35677847472888     -0.22977568259334     -2.46731437682986
  C           3.70787390307486     -0.62363245688596     -4.28966618043144
  H           4.24203429290286      0.85951610299627     -2.88780615326292
  H           1.40096309039877      1.12866796055523     -4.04501621250935
  H           2.17510086589357      3.38903473019573     -4.49115548309078
  H           3.82842266157770      2.98587725552834     -3.81387387192382
  Br          2.10365109140940     -0.47432459441245      0.82752141596887
  Br          4.36728774171021      1.36687411206595     -0.34397789363710
  Br          1.34822646464921      2.03682749011275     -0.92068527244958
  F           0.24848457364361     -2.93648179658778     -2.87186039325484
  F           2.27124856501385     -3.12241163950143     -2.14620944557987
  F           0.67004630765849     -2.67802377502995     -0.78152772869314
  Br          4.54080667980501      0.31726476946177     -5.77835770284982
  Br          5.03224851754947     -1.91575438876480     -3.63017056678541
  Br          2.15629705371507     -1.60196248985419     -4.97759851066526
