25
Coordinates from ORCA-job NEB E -47.089476919050
  C           0.15472765058484      0.43130548472099      0.78365324059023
  C          -0.84168136399398     -0.55766272491512      0.71145756116472
  O          -0.14591287060949      1.74197709494206      0.50783416712461
  H           0.90612953302941      0.27657622312587      1.55923888014054
  O          -0.52420682665157     -1.72585057005605      1.34146372456294
  C           1.00734961646503     -0.03998445325794     -0.98189495020023
  C          -0.06443109994471      0.11364865241597     -1.85624689476351
  C          -1.16497789607969     -0.77002043859006     -1.71231108990249
  O          -1.75991881088703     -0.51527884085158     -0.18435703430564
  C           2.20042129846491      0.84132851116913     -1.13726124051663
  H           1.29544882456475     -1.05110244109096     -0.69754366802597
  H          -0.24829728293426      1.08586501532350     -2.28860879097200
  H          -0.93351357911702     -1.82957842067663     -1.65092066673966
  H          -2.03606885451509     -0.56241409614963     -2.31903868381432
  C          -0.05510225695085      2.61101048130178      1.61761698296939
  H          -0.18183568979885      3.61584159731177      1.22013368402134
  H           0.92207562483582      2.52934900502043      2.10634616793444
  H          -0.84095820127356      2.39787944793603      2.34824243944901
  C          -1.37561596086073     -2.84104261220257      1.13243517735586
  H          -2.34079154008474     -2.52109779215982      0.73561125798065
  H          -1.50987257525989     -3.32621379835468      2.09834457067689
  H          -0.90590718791792     -3.54176630815281      0.43740937887554
  Br          3.22382870018701      0.20076148107379     -2.70883919740401
  Br          1.80116743163147      2.70386699088143     -1.44331940763097
  Br          3.41794331711615      0.73260251123511      0.38055439142927
