25
Coordinates from ORCA-job NEB_reactant E -47.116018324480
  C           1.86108684539904     -0.32941107429269     -0.17556475979215
  C           1.78462300873984     -1.57858467020944     -0.64110891689825
  O           1.73625095164530      0.81743166821745     -0.94070534321935
  H           2.04953929499097     -0.19575799591016      0.87911498165941
  O           1.95953942394591     -2.59210993985521      0.25297142893477
  C           3.89389304027327     -0.70502669274699     -2.76758469738672
  C           2.70717252281653     -0.30710250168033     -3.20120334547328
  C           1.43898138408769     -1.05508214561529     -2.93448078703264
  O           1.53686778460563     -2.01832398315632     -1.91471861791465
  C           5.17372656011764     -0.00026187844156     -2.96587274012589
  H           3.99687822008760     -1.62506234076716     -2.20455405260155
  H           2.58290153206526      0.60192518820051     -3.77152198880970
  H           1.15257510064562     -1.62149535791575     -3.82859848780669
  H           0.64621891465060     -0.33336763790683     -2.70775775073736
  C           2.40121757335855      1.93548682654058     -0.39794243036870
  H           3.47873977545642      1.76230554549203     -0.31269136828406
  H           2.00708253597478      2.18562963418269      0.59234258273402
  H           2.21783778330840      2.76181153875417     -1.08236764425300
  C           1.53221101376439     -3.88136595796745     -0.14714748862986
  H           1.68719624127438     -4.51641279319843      0.72242223955856
  H           2.12201689617711     -4.25427657093837     -0.98813848317504
  H           0.47551808061583     -3.88089170268932     -0.42482414666524
  Br          6.38707385813281     -1.12149091369856     -4.05442775868611
  Br          5.02664744321174      1.72516319981897     -3.83723873315063
  Br          6.05050421465469      0.29077055578346     -1.22280169187588
