24
Coordinates from ORCA-job NEB_product E -31.971831218730
  C           2.96103226461829     -0.80872530996445     -0.95812532091970
  C           1.45801274283556     -1.07222409878247     -0.89498918084364
  N           3.29254590751918      0.52723702967362     -0.48127177393718
  H           3.51147530514098     -1.53698729071417     -0.35636994488120
  C           1.00854832386509     -2.44556379192399     -0.44719770104922
  C           3.46089063515833     -0.95128732153812     -2.42344127762297
  C           2.86310416771872      0.11521034250369     -3.29967690455578
  C           1.92479101292558     -0.10652419603652     -4.20049429450913
  O           0.67117055820710     -0.18641538806008     -1.13019974626997
  N           4.91565122120960     -0.92225825243387     -2.37545505775544
  H           3.16279048847999     -1.93485852372121     -2.80369172348635
  H           3.27442790452067      1.10674420413454     -3.16366309843392
  H           1.50564968907641     -1.08806217917648     -4.35296346182716
  H           1.52621216417498      0.68161976693407     -4.81608253867077
  H           2.63466843589505      1.18704345592001     -0.88945065255570
  H           3.18008978209755      0.57576417263389      0.52590929326530
  C           1.60447754640614     -3.60206488274817     -1.24442619625558
  H          -0.08177160151289     -2.47620891605664     -0.50208311376150
  H           1.29863967701570     -2.54524813318749      0.60330093991142
  H           1.32456757107245     -3.52498068469479     -2.29225760139820
  H           1.22047144748302     -4.54406604168341     -0.85930569910544
  H           2.68843409940761     -3.61874834521517     -1.17053178063520
  H           5.20377357500386     -0.09574968057333     -1.85969206600290
  H           5.29354708168100     -0.85784593528946     -3.31504109869978
