20
Coordinates from ORCA-job P E -38.293334152630
  C          -1.31857726141082      0.50236854564456     -2.25988855819510
  C          -0.14821454116156     -1.70393265798585     -1.04774041561941
  C          -1.46257813415734     -1.86446097304575     -1.74602837919629
  C          -2.01148629252565     -0.83104430807964     -2.36174798246902
  C          -0.95176474802948      0.73882302567819     -0.78136116608556
  C          -0.07149219937554     -0.39442833803225     -0.22891350763695
  H          -1.91222807212162     -2.84386425708401     -1.76013593470110
  H          -2.94573053924725     -0.88932442802943     -2.89608855408706
  C          -2.16321312927852      1.57154078169267     -2.73674298196242
  H           0.05578685448705     -2.55386343124704     -0.39716282276024
  H          -0.40160023034089      0.49778375994409     -2.86518513713202
  H           0.63803086436678     -1.68217293784788     -1.81093686667262
  H          -1.87871560312397      0.78736453879145     -0.20741389429296
  H          -0.35577165473171     -0.59606379248580      0.80798053810449
  H          -0.44237996258492      1.69833203825124     -0.67153876009571
  C           1.38140809185783      0.05912126628112     -0.17884393773268
  N          -2.85277657754593      2.40901957755096     -3.09504576417957
  F           2.19947212588456     -0.90531920266079      0.26965506498852
  F           1.84942815865021      0.42348716998324     -1.38370777183842
  F           1.55972285038877      1.11384362268091      0.63079683156414
