21
Coordinates from ORCA-job NEB E -33.638277976290
  C           0.15174445624970     -0.39206949268933      1.42031443934492
  C          -1.15457692121155     -0.91981539145312      1.59500079559289
  Cl          0.43237843727952      1.24597836325533      1.97617191029960
  H           0.97563505665456     -1.03213407669645      1.72724836156805
  C          -1.27375928287504     -2.32216810634764      1.71191602914815
  C           0.25525610107866     -0.30912844340116     -0.42167738365281
  C          -0.88008105019526      0.45952719976623     -0.73969428633460
  C          -2.17232035893909     -0.07220621848530     -0.38858425545262
  O          -2.17668757116295     -0.20357058432801      1.15773397798295
  C           1.64982102206806      0.16174104378561     -0.80488323099443
  H           0.14966988102041     -1.37843213677640     -0.60602148290490
  H          -0.78452921690173      1.53205077874381     -0.80096193243603
  H          -2.36825408944708     -1.08723919192811     -0.73825502467901
  H          -3.01388811132489      0.58548250560221     -0.58188894158434
  N          -1.37936403736595     -3.45780457485414      1.86036313651387
  C           1.78916456963933      1.64933648287928     -1.10395979490294
  H           1.93769804710167     -0.40098936601532     -1.69753412974444
  H           2.35413630647844     -0.11312985612068     -0.01755593102367
  H           1.19187634774596      1.92727739334257     -1.96885975202372
  H           2.82996994075101      1.87386188244131     -1.32467152627287
  H           1.48611047335624      2.25343178927932     -0.25420097844406
