21
Coordinates from ORCA-job NEB_reactant E -33.669924980520
  C           1.62924788752379     -0.36771094151244      0.07762537618094
  C           1.36198888222516     -1.23804241778462     -0.91160602146189
  Cl          1.81924564920330      1.34254882104539     -0.01897651337844
  H           1.75277302817563     -0.74795129059092      1.07956211812988
  C           1.25814781488209     -2.59803244353985     -0.48218420067835
  C           3.41163929745360      0.51539284444489     -4.27290986289827
  C           2.82328242825315      0.40765476269732     -3.09361582886987
  C           1.36421827399946      0.11622515606307     -2.91120128913247
  O           1.14114967306421     -1.11679584473265     -2.23230313541916
  C           4.85893596624319      0.82329682708340     -4.47590020122032
  H           2.82881525067640      0.40656722583686     -5.17901363895454
  H           3.39829301855018      0.51246668021288     -2.18370355463450
  H           0.88143119735580     -0.02958130448142     -3.88083518713605
  H           0.86420860044807      0.93604809267417     -2.38469824006364
  N           1.17809745696571     -3.68445454442327     -0.13090344511482
  C           5.03862987303765      2.12118242853399     -5.26335900112293
  H           5.32015713394759      0.00329092453164     -5.03353293719063
  H           5.36206859075674      0.90356549359665     -3.51085357765562
  H           4.55580054305434      2.04816012850169     -6.23526791038598
  H           6.09483101400420      2.32771351383325     -5.41739345309941
  H           4.59783842017973      2.95525588800998     -4.72212949589392
