17
Coordinates from ORCA-job NEB_product E -38.843669723650
  C           1.84080601799574      0.72997548550196     -1.63024057613463
  C           0.59603348211012      0.02585400138100     -2.12545350252219
  F           1.50117366417241      1.52142869742926     -0.56368888895273
  H           2.58529001975419      0.00956462145167     -1.26688639264925
  C           0.90158375153830     -1.35182311236386     -2.79768602527274
  C           2.42302474983334      1.61927245925318     -2.74869195169370
  C           3.70079686200121      2.25131020584112     -2.28459338232610
  C           3.84785902498993      3.54679884856149     -2.08736538476480
  O          -0.52242027938735      0.42967702451834     -2.04816676050163
  H           2.60918172215540      1.00690876738472     -3.63210863836454
  H           1.68525749020161      2.38674998687422     -2.98826876341181
  H           4.51635482543881      1.56429294515451     -2.10368894457833
  H           3.04169046497853      4.24154373386484     -2.25380945506352
  H           4.78104263301782      3.96662924274920     -1.75510098566106
  F          -0.19540358981496     -1.94207001758899     -3.25171978011169
  F           1.75137898304980     -1.22425693191036     -3.83049197812390
  F           1.48655017796510     -2.18265595810230     -1.92243858986739
