20
Coordinates from ORCA-job NEB E -52.693271110370
  C           0.77283325391818     -0.36964145381017     -0.94093269404344
  C          -0.20693920445092      0.01776886334664     -1.86626085341202
  C           0.72714528290100     -1.80884101208125     -0.48442207215094
  H           1.79119927893098     -0.05672776443281     -1.15493700397625
  F           0.15395656637434      1.06046590485388     -2.67115182505288
  C           0.14567770780587      0.78127628236221      0.57026239691247
  C          -1.20826592008236      0.44481409834475      0.66972352921162
  C          -2.06069205452707      0.73737703381083     -0.41427909850609
  O          -1.43253068450998     -0.17701673542691     -1.71548581764064
  C           1.02709638053807      0.66379475851472      1.77983112137636
  H           0.38406455071313      1.69847523721132      0.03115070683380
  H          -1.51447424328813     -0.31443276815261      1.37457264493666
  H          -1.97765778876775      1.71390914041796     -0.87964126301206
  H          -3.07296750372982      0.36208787824216     -0.36213081253508
  F           1.71670141545506     -2.09049757290245      0.37014374074198
  F          -0.41359083141035     -2.17317160925542      0.10305970766798
  F           0.89672551351166     -2.62982505307192     -1.53265263328613
  Br          0.67083036885292      2.29332507922243      2.85342783557664
  Br          0.67242371941313     -0.85534162552721      2.93068755917680
  Br          2.92846419235202      0.70220131833388      1.33903483118122
