20
Coordinates from ORCA-job NEB_product E -52.738387457530
  C           2.23005928146817      1.21425542005687      1.56997713838040
  C           1.23373578875338      1.31333294856637      0.42865711348803
  C           2.57744074795760     -0.26315363073538      1.79178911711450
  H           3.16561246217003      1.70047274453721      1.26070617932650
  F           1.21018787813742      2.58716158313384     -0.03400949407254
  C           1.59800647326295      2.01930456163061      2.73873388314127
  C           0.18911205571385      1.56472708107064      3.03159230099646
  C          -0.84360844896720      2.38600899172404      2.99629049534664
  O           0.52916353160499      0.49629548217632     -0.02930516071041
  C           2.41101551839997      2.08064850573544      4.03553368651628
  H           1.55494906187736      3.05635870788338      2.37277221927098
  H           0.06189975181199      0.52348264541556      3.28764421891515
  H          -0.74279695355716      3.42979243734121      2.74578815281685
  H          -1.83678577383951      2.03968194611582      3.21905643975908
  F           3.63933326315837     -0.40551857994983      2.59217188983198
  F           1.58993262979246     -0.98865807476417      2.30994036052073
  F           2.91578829821357     -0.82616097118541      0.62623818875089
  Br          1.67175955462851      3.53929901692448      5.11778273241299
  Br          2.31850040191483      0.47407689132532      5.12995880971192
  Br          4.28949447749843      2.52309229299768      3.69258172848231
