19
Coordinates from ORCA-job NEB_reactant E -33.826395159120
  C           1.64797179888925     -0.20931076103377     -0.15318884954198
  C           1.50481157928819     -0.82230954014889      1.03069868112003
  I           1.12846126029328     -0.82024402971405     -2.09065873759579
  H           2.06781253208811      0.78278333182344     -0.15389422919333
  C           1.93413879346904     -0.02411472058872      2.14061758610842
  C           2.43877608602623     -4.07203740307990     -1.15255497983411
  C           2.24846899952285     -3.58837540329444      0.06975575171347
  C           0.91296996220617     -3.12335434004643      0.56611774180610
  O           1.02981273701751     -2.01139145187960      1.44391974710109
  O           3.57265457911921     -4.55277180993363     -1.69569403714361
  H           1.63038170097950     -4.13787165699725     -1.86914101027044
  H           3.04309766168026     -3.52877611829026      0.79837970278309
  H           0.45881520378988     -3.88590018105679      1.21016284954686
  H           0.22458184363666     -2.91850309805722     -0.25884901379322
  N           2.28483013366852      0.62179721549859      3.01799712125833
  C           4.73778462169013     -4.54260555235472     -0.90292248916540
  H           5.52582184179086     -4.96724754467966     -1.52163697188132
  H           4.60986163410092     -5.15193703874918     -0.00294652491434
  H           5.01074703074346     -3.52322989741752     -0.61286233810387
