23
Coordinates from ORCA-job NEB E -51.645916747930
  C           0.49498803599353      0.16110015252689      0.67163296832759
  C          -0.90751740205865      0.41726267576362      1.04134211158268
  C           1.24671451782715      1.47495774456167      0.46731400047201
  H           1.04061928797106     -0.40323836383694      1.43167027638762
  C          -1.54224782794789     -0.33238223592183      2.09972548998239
  C           0.48731838314941     -0.70519944778013     -0.71166990615705
  C          -0.38448439607862     -0.01339618189213     -1.64861104190485
  C          -1.71876086286416      0.25289529235422     -1.26359003734552
  O          -1.66727717734046      0.99695956731515      0.17292530525490
  C           1.89758692357515     -0.95278001791926     -1.22215938854637
  H           0.04494822999225     -1.65141400945355     -0.37771533052689
  H           0.05803671553209      0.53468807679673     -2.46535297159120
  H          -2.31512218005453     -0.60765343838630     -0.95735740860313
  H          -2.27746063299862      0.94031123666005     -1.88808547757187
  F           2.57363083312974      1.29659590701027      0.43438226081373
  F           0.91914535602168      2.12814520094776     -0.64899170072898
  F           1.01191044364730      2.31180624837407      1.48823570464517
  Br         -0.51485286078663     -0.62766042634032      3.67703729034008
  Br         -3.29649649867481      0.28699200639221      2.50211937116593
  Br         -1.89068013046552     -2.43081938495840      1.26742905640988
  H           2.54403064576358     -1.30936899518120     -0.42465825619794
  H           2.33424108781619     -0.05358518879549     -1.64822722931942
  H           1.86172950885077     -1.71421641823708     -1.99739508688877
