23
Coordinates from ORCA-job NEB_reactant E -51.666123664010
  C           1.66805332880441     -0.18679947901642      0.00084006615426
  C           1.56919364307976     -1.43528029848746     -0.48089576011919
  C           2.19641947297478      1.05324044452732     -0.63246467721369
  H           1.32074841136454      0.00114990722037      1.00668312417561
  C           0.97037372786170     -2.47708988336474      0.44439208133033
  C           2.43943657753866     -3.47616368472436     -3.93514449425022
  C           2.71883430516436     -2.18592900050574     -3.87825224704827
  C           2.47702177815323     -1.27094167312468     -2.71478192008440
  O           1.88960424760368     -1.99345459743985     -1.63580979350556
  C           2.70380036747828     -4.33512609164857     -5.12258556941344
  H           1.99158606123949     -3.97909544020639     -3.09067773693952
  H           3.16720127610774     -1.67503905225894     -4.71941977703507
  H           1.80591106638826     -0.46191743249566     -3.02678026478839
  H           3.43156476473359     -0.83784458387033     -2.39315244505479
  F           3.49566729277646      0.97903257178250     -0.98689974930428
  F           1.53415649777828      1.42639071551031     -1.74664219061428
  F           2.10149289512753      2.07955101717029      0.21691946140042
  Br         -0.85255096086437     -1.97997474153375      0.94130704781103
  Br          0.90417308997574     -4.20562390367972     -0.38848851215390
  Br          2.03568511117552     -2.63712773856039      2.07395291159895
  H           3.37271466667306     -5.14992941146773     -4.84927077700658
  H           3.15172125534401     -3.76411378359771     -5.93158852998527
  H           1.77359112352127     -4.77981386022837     -5.47324024795376
