23
Coordinates from ORCA-job NEB_product E -51.673693350090
  C           2.03438595983601     -1.64365793757271     -1.44473011483402
  C           0.77658060474803     -2.33847244289196     -0.96623604509604
  C           1.81700713360691     -0.14141412526698     -1.20822035088713
  H           2.91493613003764     -1.94088799263738     -0.86657548537169
  C           0.88236643718283     -3.14124352246559      0.32840418176476
  C           2.26810281616160     -1.89083021372552     -2.95842627513783
  C           3.43648908412458     -1.06940036454101     -3.42508863049054
  C           3.35372814849890     -0.12980837678890     -4.34667279481784
  O          -0.26371245596680     -2.30086290682936     -1.55190529780917
  C           2.53105168006176     -3.36828650373857     -3.24340986067464
  H           1.36317046243271     -1.58051930113085     -3.49029777704924
  H           4.38417001420795     -1.31324969693122     -2.96381122666148
  H           2.41719673531464      0.12730813131482     -4.81316621750513
  H           4.21835069948986      0.42350351992796     -4.66837349179657
  F           2.97310614541557      0.52362200600885     -1.15145759801081
  F           1.07365181271434      0.43263187275021     -2.15171607826252
  F           1.18979557956536      0.09566799907100     -0.04274835280731
  Br          1.88513567996062     -2.26718414397909      1.73937716732016
  Br         -0.88893411938148     -3.58425153243221      0.95522906828032
  Br          1.81991733222522     -4.78795762716890     -0.15434582961702
  H           1.65624797414569     -3.97496416639097     -3.02344368924130
  H           3.37338899114353     -3.73762804737413     -2.66246550445877
  H           2.76596715447452     -3.48761462720749     -4.29781979683617
