16
Coordinates from ORCA-job NEB_reactant E -37.511953957200
  C           1.89960163947331      0.05461177689139     -0.10203752246061
  C           1.19054973057361     -0.19029355442957     -1.22037680486486
  N           2.04691739843506      1.34573943376177      0.45662341757531
  H           2.39336096712920     -0.74556205385498      0.42301372547338
  F           1.11697268510114     -1.46221075437534     -1.64395985427685
  C          -0.54179042635631      1.72332824474785     -5.06584190320851
  C          -0.69097398729851      1.49450557264651     -3.77113025124341
  C          -0.17509708961491      0.26325553156418     -3.09841467461894
  O           0.56342757479969      0.68578283936248     -1.94654737796562
  Cl         -1.15692513667689      3.12081805450154     -5.83555129381379
  H          -0.04267367031677      1.03956372994920     -5.73694711082636
  H          -1.18205068826417      2.20411919280338     -3.12350955182935
  H           0.46813071628251     -0.31749534195184     -3.76836382196033
  H          -1.00997050741859     -0.37097476594654     -2.77003759081158
  O           2.72503238094124      1.42289869656377      1.46079919354788
  O           1.49768841321038      2.28241339776620     -0.08411857871636
