17
Coordinates from ORCA-job NEB_product E -32.800852239680
  C           1.72188768706269      1.21696200768879     -1.29428640500497
  C           1.17374411214510     -0.18046061901817     -1.14277787936809
  C           1.38843503269022      2.03167182428288     -0.04250272396241
  H           2.81191481379601      1.17224704454415     -1.39400777917085
  I           2.20898132722439     -1.61961209166940     -2.39170260094446
  C           1.11406123446094      1.77565734805932     -2.58733565935474
  C          -0.36738607069651      1.89996443676383     -2.54031693573050
  C          -1.16564352882400      1.27523391384570     -3.38757787796359
  O           0.25694616020787     -0.52900740885754     -0.48942212996092
  I           1.99558562305184      3.72333015864305     -3.05789011682821
  H           1.41524745753715      1.14475970052181     -3.42625525165551
  H          -0.76871988805108      2.54585578829681     -1.77216434624958
  H          -0.78281997879118      0.63657405600919     -4.16739630776834
  H          -2.23510271584286      1.37417418644181     -3.33166592399538
  F           2.21060027134367      1.63558526222206      0.97626506883118
  H           0.36029056589672      1.86400131782715      0.29273558449724
  H           1.57597789678901      3.09826307439855     -0.20369871537087
