22
Coordinates from ORCA-job NEB E -33.220127989450
  C           0.22604243220787      0.87744378944544     -0.99738131587340
  C          -0.89591642652938      1.04423678858296     -0.20751330309577
  H           0.09122154197264      0.57470881282503     -2.02026780311614
  H           1.06143392552599      1.53132274544797     -0.80264540775234
  O          -0.74245118053633      1.81238022157611      0.91668359376391
  C           0.76821826103491     -0.99985427818197     -0.36258031381059
  C          -0.41717585088470     -1.68521483998203     -0.60463366298665
  C          -1.57799576130108     -1.29866153101562      0.10450174650544
  O          -1.93235641237473      0.28948252497806     -0.32687043267290
  O           1.85303331612646     -1.31765873702883     -1.11794465625607
  H           0.99520789645046     -0.68123709335801      0.65437712628971
  H          -0.52743709241632     -2.13935715245442     -1.57722350089553
  H          -1.46810626062466     -1.16648485626090      1.17606407962692
  H          -2.50332879123961     -1.78757240645670     -0.16688736701488
  C          -1.85381052804712      1.88976070803648      1.78664571721651
  H          -1.66279320500677      2.73500828884496      2.44478299433019
  H          -1.95684879284472      0.97779709220940      2.38141237564377
  H          -2.77670832901146      2.04979172474728      1.22427143665810
  C           3.08256910778895     -0.77591252663642     -0.69884044755995
  H           3.84735816737113     -1.22854356342308     -1.32718080174861
  H           3.28623579230865     -1.01224007784690      0.35106019925280
  H           3.10360819002985      0.31080436595118     -0.82983025650453
