22
Coordinates from ORCA-job NEB_product E -33.274170736670
  C           3.25962053153606     -0.15226814275707      0.49694014683467
  C           2.07998885460164      0.24621274440025      1.35163201116670
  H           2.91127727680443     -0.38414127193580     -0.50891213583976
  H           3.97610204670444      0.66810211443340      0.45059528727846
  O           2.47170233052167      0.59585807723964      2.58303465459225
  C           3.95859602488603     -1.38719904740413      1.09067158010571
  C           2.96210499880843     -2.50668511853700      1.23557500229072
  C           2.54510024756087     -2.97795023668419      2.39468054881681
  O           0.93271352289361      0.24879860634909      0.99630060189792
  O           5.01399278509442     -1.71932033961472      0.20615572672844
  H           4.37094797795873     -1.13013355439048      2.08072762831902
  H           2.59130416761706     -2.90254779201111      0.30016849072077
  H           2.91322393414142     -2.58609394419868      3.32967469247530
  H           1.81271749590459     -3.76427594960036      2.46116288364477
  C           1.43688303828561      0.95570679922327      3.48874903844657
  H           1.92626218643491      1.21140791103508      4.42489800372265
  H           0.75015344197368      0.11852025696111      3.62848109061158
  H           0.87533130578792      1.80883389250068      3.10323887352948
  C           5.86741257914787     -2.71806881005194      0.70328379959154
  H           6.33545924686562     -2.40523245918330      1.64536675782614
  H           6.63634095372287     -2.86713568734481     -0.05197169982613
  H           5.33296505274814     -3.65968804842891      0.87354701706637
