24
Coordinates from ORCA-job NEB E -32.288564877000
  C           0.37458417771492     -0.28419923686588     -0.76196995152453
  C          -0.07558801585332      0.97626995630514     -1.21795615620016
  O           1.76617383319459     -0.48623191534030     -0.65640514994369
  H          -0.10600337465045     -1.13915586597666     -1.25135886891886
  H          -1.06132238559199      1.04087313984823     -1.67694407140323
  C          -0.02856794328282     -0.30966631305765      0.99460147304674
  C          -0.08065802916313      1.02653909080325      1.47438370852333
  C           0.85762988959064      1.91634387953940      0.82330669376857
  O           0.29176708406744      2.06213858516313     -0.57508924501069
  C          -1.21768262693247     -1.21907657051920      1.26113744759356
  H           0.91105741822271     -0.80397553738699      1.24468963103652
  H          -1.05099275297578      1.45384847025485      1.69552483017772
  H           1.86245182496351      1.50253894344354      0.72249221493199
  H           0.87718942715624      2.94215472122512      1.18115217986842
  C           2.39571662081945     -0.60967952352939     -1.90839773595730
  H           3.44826078633745     -0.79623237237528     -1.70332519873999
  H           2.29147739739943      0.30540408228765     -2.50221751514031
  H           1.97973691674505     -1.44942038058145     -2.47915330130649
  C          -2.52676731147762     -0.74036839669845      0.64192328332246
  H          -1.34311685081686     -1.29593162180871      2.34431310744781
  H          -0.99155025363699     -2.21971056527435      0.88631871185442
  H          -2.79134184122695      0.24973525599266      1.00262647945022
  H          -3.33347929899543     -1.42200379528912      0.90238814487376
  H          -2.44897469160760     -0.70019403015954     -0.44204071175023
