24
Coordinates from ORCA-job NEB_product E -32.335760225380
  C           0.17808091141294     -0.93421155550924      1.35126459510791
  C           1.01304714574686      0.26063537383239      0.94306277085806
  O           0.86581380314890     -2.15733187780087      1.27557450876299
  H          -0.70559271821829     -0.94631761967090      0.68528786928470
  H           0.43953146927095      1.20930855605073      0.99498642611013
  C          -0.28817167067262     -0.72565824313117      2.81250127375027
  C          -1.08597904585076      0.53576446463516      2.95032033915350
  C          -0.91015686870364      1.41954624866334      3.91478232374718
  O           2.16093281298161      0.24014928239143      0.60397042061098
  C          -1.08455541111759     -1.94487959373005      3.31728111780826
  H           0.61429358185023     -0.65626619739230      3.42821016042913
  H          -1.86632708423073      0.68151700969037      2.21470447994211
  H          -0.14155623194410      1.29849962176539      4.66023280996724
  H          -1.52346573559099      2.30014613997278      4.00165526734345
  C           1.13297645671078     -2.59796364928660     -0.03428690284847
  H           1.58938490708329     -3.58050525405771      0.06735055477122
  H           1.82300649233213     -1.93088736894712     -0.55761575037065
  H           0.20603286948178     -2.68535091140677     -0.61688360265807
  C          -2.42463609285465     -2.16445202237847      2.62617961750867
  H          -1.25470921094874     -1.80569530883916      4.38692546064269
  H          -0.45834811153799     -2.82726188135345      3.18276481995297
  H          -3.08829724992956     -1.31682734818711      2.77811839599125
  H          -2.90551051896101     -3.04842816283413      3.03869567045680
  H          -2.29569449945880     -2.32352970247654      1.55861737367768
