24
Coordinates from ORCA-job NEB E -45.445603231700
  C           0.60891852613615     -0.21616373739021     -0.10302470203752
  C          -0.51664068566691     -0.61850654629981     -0.84847096294731
  C           0.71978862643490     -0.70131365794327      1.32548687132957
  H           1.55801865671591     -0.24889012667788     -0.63436729217664
  C          -0.40247004211728     -0.63917836301590     -2.36476767758735
  C           0.20075118501796      1.63259761701333      0.04523222641134
  C          -1.08737897242515      1.63971855006675      0.60787807291981
  C          -2.14269484208811      1.06576298219757     -0.15705104187348
  O          -1.70947949087198     -0.48062201671655     -0.34519849477216
  C           1.27048626935734      2.17475403249308      0.81761559194680
  H           0.29142681232379      1.89905444297822     -1.00544987919716
  H          -1.18051526856243      1.67484626882088      1.68363255349754
  H          -2.23255981029688      1.39774600429550     -1.18868664963739
  H          -3.10452135775291      0.97982715273265      0.33387207307397
  C           1.28548379876563     -2.11961934037885      1.33078236495213
  H          -0.26889633570353     -0.70201677423028      1.78656100652702
  H           1.37808606255584     -0.04765486436468      1.89922675206029
  H           0.62840917069296     -2.79232425132809      0.78505743771481
  H           1.37802046043054     -2.47554615578307      2.35331937351153
  H           2.26880743487236     -2.14433458422692      0.86720487511065
  F          -1.42838147835413     -1.25892545756499     -2.94730197174677
  F          -0.36141572487590      0.60939501421342     -2.90567421080423
  F           0.72250017616415     -1.24401364281439     -2.77411231822528
  N           2.12425682924769      2.61540745392346      1.43823600194983
