24
Coordinates from ORCA-job NEB_reactant E -45.470445352990
  C           1.80213153577808      0.27435831399372     -0.07856531067625
  C           1.25068478684478      0.96844809985438     -1.07050000686927
  C           1.98883875643702      0.60582091806803      1.37141871280150
  H           2.18120027050462     -0.70040162613956     -0.35164585874517
  C           1.20448627813899      0.38508698854359     -2.47236315930376
  C           1.81273478567164      4.44291726907339      1.50572305596109
  C           1.70869061974082      3.72194768772503      0.38969695101739
  C           0.45951801109751      3.00582813643192     -0.02417951284947
  O           0.63986898135331      2.18606788474126     -1.15654747598254
  C           2.99672121267185      5.11860652010304      1.85874381727004
  H           0.99176371619276      4.53966499437634      2.20501950145373
  H           2.53997235655275      3.64705839513243     -0.29894204622491
  H          -0.28349846204461      3.74290219105396     -0.35474128542452
  H           0.02636830569367      2.43772260181037      0.80793013135308
  C           3.16773022813292     -0.17013853491310      1.95202138860854
  H           1.08192552277596      0.33384008622371      1.92169311211970
  H           2.16351503730282      1.67248832784311      1.51459364520515
  H           3.00323908871112     -1.24134493409217      1.86543568457280
  H           3.29656644896306      0.07519297955523      3.00317848529632
  H           4.08463127228734      0.08282746091473      1.42554887450909
  F          -0.05429498474002      0.25192097703529     -2.91447497487406
  F           1.84083968695638      1.16746447011450     -3.35549205656697
  F           1.76800197953815     -0.82599086383349     -2.56376744975708
  N           3.95656456543907      5.66741165638432      2.16121577710558
