24
Coordinates from ORCA-job NEB_product E -45.473503448460
  C           2.25349251664739      1.69982802517649     -0.17862272273445
  C           1.21204268190677      1.67842914435959     -1.26337237222876
  C           2.08238605307695      0.47770865939758      0.74782765203596
  H           3.23154333954006      1.60919870440531     -0.67158898108544
  C           1.24930895140890      0.41805026827127     -2.18551668211445
  C           2.18653656653663      3.06492668434972      0.55501131412716
  C           1.12219265435136      3.12404777836004      1.62411857801478
  C          -0.02700942546621      3.75017678886289      1.46239949836015
  O           0.38924850245195      2.51881283404925     -1.48135713340406
  C           3.47069564262301      3.39119874581470      1.13248550911997
  H           1.96611901239536      3.83280870319532     -0.19823447101706
  H           1.36132355023734      2.63168046072458      2.55649558395898
  H          -0.28042134260973      4.24965799755064      0.54226508393313
  H          -0.76836849883434      3.77449532123643      2.24240037139541
  C           3.22984181693717      0.34161006522522      1.74104719048562
  H           2.04903344991623     -0.42995842054324      0.14439388044397
  H           1.13076157635471      0.56169654006980      1.27601905080551
  H           4.17933102593675      0.25221933050417      1.21853606090660
  H           3.08385288871529     -0.55237365039744      2.34203896436491
  H           3.29117793047804      1.19546781811535      2.40963965016579
  F           0.45389841364903     -0.55262525769554     -1.71180371126494
  F           0.83112964316730      0.71377281330795     -3.41428929926582
  F           2.47918041518525     -0.10535342430063     -2.30097281633575
  N           4.47880263539478      3.67032406996054      1.59277980133279
