14
Coordinates from ORCA-job NEB E -26.099556397220
  C           1.03165157604299      0.94201808221431      0.48124314924724
  C           0.69939587541736     -0.09601720700539      1.33516919737613
  H           1.84687011405560      0.74400199155706     -0.19854865004445
  H           0.99035436453439      1.95129117861968      0.85900694385184
  Cl         -0.23202731453905      0.32558454540229      2.77650783817370
  C          -0.41847056633077      0.76164713621603     -0.90935262069971
  C          -1.04101941053823     -0.45599278083602     -0.66874461588351
  C          -0.19900350513058     -1.57698496674398     -0.49948503388040
  O           0.62168876787437     -1.30219069274793      0.95842710223609
  I          -1.60634850390059      2.52040393082104     -0.84134245786432
  H           0.30061071200624      0.83448898415793     -1.71092097954783
  H          -1.98528172579663     -0.46070879071501     -0.14091917021970
  H           0.65591708632395     -1.65963945736399     -1.16254786433762
  H          -0.66433747001905     -2.52790195357602     -0.27849283840746
