14
Coordinates from ORCA-job NEB_product E -26.160656004040
  C           0.90413669807500     -0.01928784578300     -1.23955717845363
  C           1.52022929206562     -1.12273598045321     -0.43517812320226
  H           1.67887847959884      0.73296638539242     -1.41593813473221
  H           0.12026651111036      0.45967132643097     -0.64757370114881
  Cl          1.98816042104756     -0.55975539492344      1.17660001990749
  C           0.34965169766775     -0.56064800623256     -2.55075604541396
  C          -0.80666001724135     -1.46929279901719     -2.34953623451125
  C          -0.90802849139515     -2.65855363069895     -2.91510727900648
  O           1.72128429800740     -2.24386682976184     -0.75635120850538
  I          -0.28664163117309      1.14116544655989     -3.77967527223658
  H           1.13265160769330     -1.04788902194728     -3.13084837994584
  H          -1.58946336395387     -1.09200331993317     -1.70420512766547
  H          -0.13988718703296     -3.04579193581684     -3.56359070095047
  H          -1.75707831446942     -3.29597839381579     -2.74218263413514
