21
Coordinates from ORCA-job NEB_product E -43.454308371060
  C           1.09298359306904      0.15739491287756     -1.41623627063956
  C           2.32230854011253     -0.73009842774534     -1.29821490172919
  O           1.38744158230561      1.48763649983448     -1.11493221073477
  H           0.28092446910803     -0.22310039407598     -0.76880043672310
  C           2.09836009332136     -2.12195605760372     -0.71146024126327
  C           0.60480156781251      0.12436062376945     -2.87956037026273
  C          -0.69844036465887      0.83395124866776     -3.01414942688876
  C          -1.78399729293136      0.25697143492580     -3.49409527220003
  O           3.42763005558743     -0.39275560328534     -1.59802054785279
  Br          1.95199132343153      1.01344056202652     -3.99617484791859
  H           0.53538005525497     -0.90003245101938     -3.25051020851633
  H          -0.68785329737409      1.86515807928203     -2.69260237754462
  H          -1.78858519692201     -0.77093750387976     -3.81887068336954
  H          -2.71184932866480      0.79375714534587     -3.58260335096043
  C           1.69393811220763      1.74422384672562      0.23598568919092
  H           0.88347071119581      1.41035626330036      0.89443515497351
  H           1.80731312446400      2.82283686347707      0.31103592297497
  H           2.62880900420029      1.26301843730647      0.54089835072848
  Br          1.85822560463179     -1.81387359933671      1.21041385309453
  Br          0.52718781961404     -3.02671583640618     -1.39505176645866
  Br          3.66445982423453     -3.21603604418658     -1.00388605790005
