21
Coordinates from ORCA-job NEB_reactant E -43.462539647730
  C           1.17223684616243     -0.12745601917538     -0.45695683077137
  C           0.89850158227855     -1.18159799425262     -1.23330972205511
  O           0.49246596252822      1.04580745608625     -0.48736832371445
  H           1.97803916195356     -0.18759837178573      0.26418106840095
  C           1.60613274761497     -2.48416808394947     -1.13201484845357
  C           1.19173241332766      0.77768126626319     -3.69418441725310
  C          -0.02663354131216      0.91640585678300     -3.20396056249789
  C          -0.81815927575745     -0.20243408735603     -2.59551869509400
  O          -0.04974921603117     -1.32246095053753     -2.21444997263817
  Br          2.17051389261235      2.23677515891872     -4.39109848229774
  H           1.73456485991766     -0.15273493635566     -3.74066574281901
  H          -0.52111779119107      1.87618365363433     -3.20275052667378
  H          -1.52706015354110     -0.60319796756835     -3.32906311717997
  H          -1.38210123184015      0.18040088695597     -1.73748385651435
  C           1.16887897233598      2.14604131002111      0.08595362185062
  H           0.44864314964982      2.96067585103344      0.11509149421838
  H           2.02717835051124      2.43946248504876     -0.52573443827267
  H           1.50762236561289      1.91697104449748      1.10040407867304
  Br          3.03008308863499     -2.56564792267050      0.15872164612323
  Br          0.30377147551872     -3.89088116194057     -0.68861875340932
  Br          2.35995634101407     -2.93032747365040     -2.88667361962173
