22
Coordinates from ORCA-job NEB E -53.300318983160
  C          -0.07407458625376      0.98808633735300     -1.10035842811188
  C           0.67470439584413      0.59696852731420      0.04614806568261
  C          -0.14474092851984      0.32884902545195     -2.33272121323176
  H          -0.90174212317665      1.64532732954329     -0.87589601607196
  C           2.15404665452040      0.21283837816372     -0.12390360554533
  C          -1.19001333527478     -1.21872952745113      0.67418090189228
  C           0.05592281472746     -0.68058734354314      1.08568123920033
  C           0.10144077624954      0.49852392453207      2.06713957191299
  O           0.51802191635207      1.48665108078365      1.13216507578161
  N          -2.28735814237312     -0.47852919716272      0.60965397962721
  H          -1.28370040589435     -2.27300920094189      0.47220092084443
  H           0.81631069175103     -1.43807901761029      1.24029880744957
  H           0.84320103189217      0.36205752446564      2.85812402008404
  H          -0.86385354193906      0.75957984092737      2.51011908638768
  Cl         -1.06907160192973     -1.56708811228057     -1.99843510786917
  Cl         -1.26868820074508      1.04372469889388     -3.44393762176140
  Cl          1.29027631621540     -0.20378101898638     -3.15199976434440
  F           2.81772587126791      1.06304720518522     -0.90653506219232
  F           2.78345917378051      0.21829856570445      1.06236899829088
  F           2.33336907266996     -1.01846289000293     -0.61834860156960
  H          -3.10380418061143     -0.85323671033811      0.15138560109262
  H          -2.20143166855278      0.52755057999872      0.64266915245156
