22
Coordinates from ORCA-job NEB_product E -53.326199758060
  C           1.46421570645153     -0.53900103593408      2.09914864560431
  C           2.49532979596901     -1.62002087381763      2.32803063248297
  C           1.38150272355733      0.11702233179347      0.72261385055657
  H           1.74572370036913      0.25225047278828      2.80769261460270
  C           2.84966124471514     -2.69393844000352      1.25128790696622
  C           0.07934985556271     -1.05240528400505      2.63035748589532
  C          -0.20368781631982     -2.47931787727061      2.23965336730921
  C          -1.24722471260192     -2.85827188174270      1.52677952111495
  O           3.04542470515842     -1.73947379644870      3.38591406367895
  N           0.08730182486778     -0.85222681583648      4.06834023602412
  H          -0.68976723010606     -0.39255064045899      2.21411479664927
  H           0.46981388031111     -3.21488685597423      2.66300258128307
  H          -1.93906044943022     -2.14381583648582      1.11277100714824
  H          -1.44240258712724     -3.89501934030927      1.31592757081550
  Cl          0.29955675732230     -0.68127180322750     -0.42941656199397
  Cl          0.76105973073752      1.77753971801762      0.94689123444603
  Cl          3.01614552391872      0.23450650305200      0.00943329981266
  F           4.09491658567738     -2.50504206301084      0.80424303901176
  F           2.81781349853030     -3.90311369964621      1.82823914793494
  F           2.04927631989036     -2.75976270409025      0.19033121673256
  H           0.77349081654894     -1.45176123062601      4.51619272237023
  H          -0.82193987400242     -1.06153884676348      4.46215162155439
