22
Coordinates from ORCA-job NEB_reactant E -53.343208346760
  C           1.33051136369396     -0.55827829405354      0.12359537770264
  C           1.90547758439326     -1.33319619715708      1.05412358716360
  C           1.96520870831930      0.16118572973296     -1.00844158952213
  H           0.25806149587492     -0.44358688066714      0.15670575087193
  C           3.39866360877829     -1.62643282508546      1.17360450556927
  C          -0.90281965956898     -2.06216075510515      4.55452096459418
  C          -0.54352092019254     -2.62318349131056      3.39884504826271
  C          -0.14337605234687     -1.83069921740279      2.20190083697473
  O           1.28008488190483     -1.95520730771893      2.05438200215303
  N          -1.34611661173768     -2.74601406565961      5.65573150170120
  H          -0.94841542530621     -0.98522761412731      4.65024707323371
  H          -0.48563999227256     -3.69584284976068      3.30162726619341
  H          -0.39828967444254     -0.77250219418406      2.33019539333369
  H          -0.62177507839431     -2.21565638148612      1.29242185407625
  Cl          2.36645537481621     -0.96927363630391     -2.34375029562730
  Cl          0.80538892935536      1.34858972116891     -1.65323676343500
  Cl          3.43768068800846      1.05056359937724     -0.55142653331421
  F           4.04130332706452     -0.65898527299831      1.84402123157669
  F           3.60843906986577     -2.75892518209744      1.84866296884558
  F           4.01662335011485     -1.77005709818808     -0.00034918819845
  H          -1.14781352816549     -3.73411724235121      5.67196753474327
  H          -1.26503143976256     -2.28549254462172      6.54625147310120
