21
Coordinates from ORCA-job NEB E -42.278838970910
  C           0.40658451282892      0.27331403010484      0.96527373037376
  C          -0.81537837214453     -0.22488754923471      1.46573889152734
  C           0.49230284000416      1.75198407746012      0.66245182325672
  H           1.30347662409060     -0.03571977176857      1.49822730984502
  C          -0.78246425117306     -1.33047670000920      2.34708623700802
  C           0.47969081442064     -0.61444496455335     -0.74226081754981
  C          -0.76082983825786     -0.26599632267446     -1.28175345607660
  C          -1.96640083038345     -0.64123561604861     -0.57251901900159
  O          -1.92994064581604      0.04218037546655      0.79787780002462
  C           1.73636646974996     -0.20116131788260     -1.45993732428740
  H           0.55902215229728     -1.60943031603083     -0.30972340614417
  H          -0.81704564691929      0.56495345639322     -1.96878075009219
  H          -2.04443041884008     -1.70507342585662     -0.33814113867920
  H          -2.88548084238382     -0.26600933511513     -1.01231410957707
  F           1.71703023059258      2.10883380159279      0.24106516240379
  F          -0.36952062695891      2.21842582739359     -0.24052127443366
  F           0.27957310481699      2.45745731398131      1.78875410496526
  N          -0.76669340932801     -2.18560034617119      3.11436022352733
  H           2.59466457022025     -0.20353096618892     -0.79325122785561
  H           1.63816747717870      0.78488599247712     -1.90540620189325
  H           1.93130608600497     -0.91846824333534     -2.25622655734130
