21
Coordinates from ORCA-job NEB_product E -42.307617078610
  C           2.64469867194134     -0.76157414181366     -1.20759541656540
  C           1.30959934895319     -1.01687165284470     -0.51415754828406
  C           2.91228456016899      0.74097750664478     -1.29913981633860
  H           3.45849758644970     -1.17429069493860     -0.59896601609511
  C           1.18241787189856     -2.41478891804538     -0.12459494635006
  C           2.59553429023283     -1.51510277676334     -2.57054288548434
  C           1.28219406416911     -1.26300160506368     -3.26458705644052
  C           0.34316900481402     -2.17988043657481     -3.40047186970241
  O           0.45114195068566     -0.20464443241858     -0.32406716105296
  C           3.76696302757510     -1.15286819504653     -3.48098738636349
  H           2.65773090241350     -2.58222014286884     -2.32588631247323
  H           1.14281181700620     -0.26827629042110     -3.66244194435129
  H           0.45919604151946     -3.18026292386657     -3.01417218559446
  H          -0.58289911235595     -1.96935058378584     -3.90588589539134
  F           4.18824575605783      0.99154724259991     -1.63963688644008
  F           2.14940525558809      1.38744082178844     -2.17955991864244
  F           2.73539472913644      1.33326296169901     -0.10979529099214
  N           1.10180895744499     -3.51190201649508      0.18810029014631
  H           4.71671269817343     -1.28266629403904     -2.96770264806239
  H           3.69532785276133     -0.12559593919638     -3.82861651036310
  H           3.75016472536616     -1.80523148855001     -4.35069259515890
