21
Coordinates from ORCA-job NEB_reactant E -42.305522113560
  C           1.62581147510497     -0.09066766397202      0.05930126993358
  C           1.40302351828535     -1.38298365399958     -0.26076812457366
  C           1.55414215666895      1.14193699053975     -0.77361826074581
  H           1.87592126548969      0.12382956263387      1.08718922117503
  C           1.53257557135098     -2.29181274588624      0.84695100451604
  C           2.70599926029312     -2.18504950076064     -4.38521342565400
  C           2.42550034595931     -1.51086311006725     -3.28234465741756
  C           1.05888227420310     -1.45440455293673     -2.66884555368670
  O           1.06006420169017     -2.03632050214105     -1.36283574282595
  C           4.05280611813767     -2.24685839347976     -5.01648717184615
  H           1.92312207399747     -2.72905311211678     -4.89856692110349
  H           3.20020001831433     -0.96678191131996     -2.76058152719278
  H           0.36260712086250     -2.07874565177307     -3.23449390058412
  H           0.67180388010252     -0.43366712562131     -2.64876931077227
  F           2.42122745382264      1.17295794904894     -1.80594345839694
  F           0.33573619279771      1.36282921890367     -1.31579876711880
  F           1.82735503423876      2.22176717821248     -0.03119833197543
  N           1.64073487421017     -3.00567132967378      1.73282895719013
  H           4.78075110671448     -1.67615786571172     -4.44644744042868
  H           4.00766296712693     -1.85052472799774     -6.03019408767183
  H           4.38547309062917     -3.28205905188106     -5.08366377082058
