15
Coordinates from ORCA-job NEB E -30.624840956510
  C           1.12423605830779      0.78339029601426     -0.15473881824024
  C           0.57596207653017      0.80229007710609      1.13385750004451
  O           0.64695231748388      1.67258235304815     -1.05956802779792
  H           2.18193465776914      0.53132057709771     -0.22820800144076
  F           1.34649478632277      0.10174096062541      2.04793196116947
  C           0.21310845600240     -0.95237777726374     -0.66305643365040
  C          -1.12554456801737     -0.66142346181966     -0.44313441633805
  C          -1.54408584799294     -0.46722830526618      0.88594271202357
  O          -0.63909535903814      0.91402659027001      1.40105297665879
  Br          0.81407876092746     -1.18621499113691     -2.46407979941130
  H           0.75741647184542     -1.60254891906921      0.01037386140876
  H          -1.69553847232846     -0.20990699509275     -1.24201152473217
  H          -1.18382605562547     -1.15675173706891      1.64081534518461
  H          -2.55518370883112     -0.12467176521377      1.04952136420085
  H           1.08309042664446      1.55577309776949     -1.91469869907972
