15
Coordinates from ORCA-job NEB_product E -30.669028612100
  C           1.49354712618957     -1.68655563850805     -0.82658418895665
  C           1.20809334481152     -1.02352866720612      0.49678965862449
  O           1.03922527853895     -0.90043859671441     -1.87950892431628
  H           2.57736933954673     -1.81848171709339     -0.94856563636178
  F           1.83990785183168     -1.64532062907863      1.52026321341982
  C           0.82405556831606     -3.08558218808981     -0.77453296052420
  C          -0.65694269863020     -2.99751111221055     -0.64789337444692
  C          -1.33131361604885     -3.52935410728333      0.35473973117442
  O           0.49460696068145     -0.10476252623857      0.69645361337136
  Br          1.28065255639360     -4.03524121628191     -2.44255750192696
  H           1.26615421285359     -3.67585132388781      0.03084104407984
  H          -1.15844754971620     -2.47340537391966     -1.45018829744193
  H          -0.84137866741592     -4.06773415733622      1.14973431803304
  H          -2.40147503241332     -3.44436385151101      0.42030302830081
  H           0.30094532506134     -0.35026889464055     -1.58199372302905
