15
Coordinates from ORCA-job NEB_reactant E -30.646546129190
  C           1.81183383943513     -0.00952056798143      0.08836430302523
  C           1.50152213301574     -1.28855291852690      0.27475283472177
  O           1.49757406662335      0.65245257972403     -1.06205940627855
  H           2.33790082491187      0.51758229881181      0.87061569805762
  F           1.79309222726829     -1.84221340767050      1.48828832485880
  C          -0.77169748111087     -5.07660189943388     -1.18705799176504
  C          -0.60838407985657     -3.76913436125792     -1.27048342449794
  C          -0.12676426684240     -2.93322882726974     -0.13033131584463
  O           0.95698366706523     -2.13266330498335     -0.60789795103812
  Br         -1.41285751951312     -6.11361485680733     -2.62559818504115
  H          -0.57912602397669     -5.65719712100508     -0.29854496151161
  H          -0.80184034744321     -3.23166728805475     -2.18701467557076
  H           0.20227136684111     -3.55807239396584      0.70888979273330
  H          -0.93931785152018     -2.27546952074240      0.21343943977069
  H           1.97490944510232      1.48710158916328     -1.09846248161963
