16
Coordinates from ORCA-job NEB_reactant E -30.665132897150
  C           2.01798672381588      0.10394446538503     -0.16173211736951
  C           1.24258377094625      1.02964093327938      0.39463650190968
  F           3.13618220337229     -0.33576508307252      0.44392963352795
  H           1.83742096885058     -0.33104213038535     -1.12882397137481
  F           0.12584824297227      1.38156894074104     -0.28890656901096
  C          -0.44761477874415      0.60452233428730      4.02151077327294
  C          -0.53679621172572      1.06391640099970      2.77310394214024
  C           0.31790495357328      2.17211082805360      2.25680986180818
  O           1.46360908110792      1.67840244911054      1.52597878969303
  N          -1.25035865988052     -0.36735729872203      4.56442322777727
  H           0.23927888165001      1.05992811066045      4.72235348610358
  H          -1.21483222227567      0.60538253271745      2.06724254060055
  H           0.76608654782152      2.74237011075152      3.07101782034141
  H          -0.25317733843373      2.84347901161355      1.60602994767380
  H          -1.76326881467605     -0.93325679525690      3.90621884795157
  H          -0.88465334837416     -0.87264481016276      5.35380728495506
