16
Coordinates from ORCA-job NEB_product E -30.671978090890
  C           1.18506147451628     -0.15752704329000      1.46498692824634
  C           1.44699890072622      0.94895858425490      0.47488352425154
  F           2.38532139468024     -0.68702319664719      1.85798552931170
  H           0.60992864435198     -0.96599007972880      0.99699550376243
  F           0.39070755296123      1.05862083745894     -0.38561852781367
  C           0.43428371749603      0.39896635895650      2.70732436278323
  C          -0.61032501150956      1.40106704166115      2.28396997636707
  C          -0.57651607603961      2.68090702568111      2.60298667275250
  O           2.36214054156108      1.67772512675246      0.37396182599843
  N          -0.10590583180382     -0.72650536210567      3.44698491602306
  H           1.19099908921444      0.88480750712131      3.33260723408621
  H          -1.43395123058434      0.99227300074114      1.71199144652039
  H           0.23642892814329      3.10207395027604      3.17138848064210
  H          -1.35399847353968      3.36153654650332      2.30202341196721
  H          -0.92419841133504     -1.10671800728569      2.98294500639745
  H          -0.36827520883874     -0.44907229034949      4.38418370870400
