23
Coordinates from ORCA-job NEB E -43.178330876490
  C           0.51550817440651     -0.59357573337491      0.69686318999410
  C          -0.84603571410911     -0.66159929217843      1.05519120135625
  C           1.40309369707325      0.33918268342357      1.49295360749226
  H           1.00673130072297     -1.54563024038393      0.51486470698183
  C          -1.66041449347422     -1.88174138667299      0.74995096686001
  C           0.28288874746929      0.20431642773121     -1.01882540347858
  C          -0.39927950928823      1.40014264616372     -0.73502476506289
  C          -1.67068353327344      1.29710788997831     -0.09965096283902
  O          -1.46912104819951      0.46834591402424      1.25986710851638
  C           1.56463922150078      0.29223895059618     -1.79921457067900
  H          -0.31966245602888     -0.60483727923978     -1.43419990825391
  H           0.16356766468914      2.31304296955468     -0.60938414103726
  H          -2.40522699304478      0.66946034604382     -0.60255280906738
  H          -2.10140701278425      2.22975786526138      0.24418053031208
  F           2.71854739348284      0.12494537193480      1.17862821460134
  H           1.30161264090767      0.11898355954757      2.56158560325196
  H           1.18593817615194      1.39743527804805      1.32064866523839
  H          -2.23182242264422     -1.72626331997670     -0.17028264488396
  H          -2.38144430709835     -2.04852172061647      1.54748131585762
  H          -1.03453109008267     -2.76103174107247      0.63771242531799
  Br          1.04877100140009      0.56025656282310     -3.70176067950352
  Br          2.73023120171800      1.76738260926598     -1.33726917522911
  Br          2.59809936050516     -1.35939836088093     -1.75176247574558
