23
Coordinates from ORCA-job NEB_reactant E -43.209204127800
  C           1.61670490876612      0.02443651076259     -0.13991581953177
  C           1.33045340051757     -0.57586934860823     -1.29865543331361
  C           2.17063589090399      1.38864779972651      0.13208644197417
  H           1.45164243644048     -0.56887519715942      0.74573515410342
  C           0.74737190695543     -1.96077522731181     -1.33138047136384
  C           2.77116361593362      1.87373276850315     -5.17007269844983
  C           2.66204838412237      0.85579005617377     -4.33100160437299
  C           2.24577159884747      0.99783480405735     -2.90261792641130
  O           1.46455220063472     -0.13361239621585     -2.57575620613386
  C           3.20561766787192      1.79845560684183     -6.57983450078942
  H           2.54750491624603      2.88481478339002     -4.84996685971756
  H           2.87215151156615     -0.16042048780823     -4.63535509312847
  H           1.67475725963388      1.92355582848045     -2.76144354076882
  H           3.15171382668020      1.03356433448419     -2.28439101703991
  F           3.54067867770393      1.45215994085531     -0.10100324111722
  H           2.04057073935039      1.64436053421605      1.18692801184401
  H           1.72453731946415      2.17195572518959     -0.48760456291511
  H           1.49449258360891     -2.66418930721193     -1.69533553004265
  H          -0.09067183570033     -1.97990643261392     -2.02411797566565
  H           0.41450905466400     -2.27183838441616     -0.34763221939660
  Br          1.79220032712415      2.54528866625250     -7.73915737643645
  Br          4.82475403197275      2.90665966303999     -6.82888171634571
  Br          3.60903957669209      0.01552975937224     -7.21852581498081
