23
Coordinates from ORCA-job NEB_product E -43.229645386730
  C           2.07406700591037      0.04333686076791     -2.35422418767487
  C           0.61355953229986     -0.42753015291548     -2.43423988122124
  C           2.22813924437381      0.60903717279992     -0.93515895416780
  H           2.76181761751578     -0.80237674537795     -2.45187922949363
  C           0.40162996686763     -1.88184067274061     -2.14178609168822
  C           2.36147037697041      1.11884853269848     -3.42254816632171
  C           3.46725323764357      2.05489871226123     -3.01940291322641
  C           3.30191336013168      3.35872870525695     -2.90164267765451
  O          -0.27160090747064      0.35451274081076     -2.66040848926813
  C           2.71122263821109      0.49836433544368     -4.76947719457847
  H           1.43424804805233      1.69497299520587     -3.56100014012954
  H           4.42646373764405      1.59660201551357     -2.82254985661166
  H           2.35283793599164      3.83571003157824     -3.08788931223498
  H           4.11382820907156      4.00273465285103     -2.61379393212817
  F           3.54689579206609      0.67829949157598     -0.57665756591695
  H           1.74333172935773     -0.04442972971440     -0.20198450965311
  H           1.81494050224312      1.61912693407730     -0.86304359461680
  H           0.77138056142602     -2.47337714682307     -2.97782123618546
  H          -0.65728883392140     -2.08574689563831     -2.01082439735096
  H           0.95484123645281     -2.17766073037278     -1.25344038275984
  Br          2.95594416790509      1.90008816434315     -6.10824544997154
  Br          4.36077730964118     -0.54707411425925     -4.69720477592577
  Br          1.30812753161621     -0.69352515734221     -5.43287706122023
