22
Coordinates from ORCA-job NEB E -32.100068851790
  C          -0.53189980258599      1.41826524222225     -0.09038023286204
  C          -1.87080108274840      1.16635247958267      0.23692211060281
  N          -0.08485917726726      1.27556639858108     -1.40448930035057
  H          -0.01680268898667      2.19091795372187      0.46827034714814
  Br         -2.37611954713866      1.78873367774100      2.05856001731839
  C           0.18551523702776     -0.28223389149544      0.79285898876407
  C          -0.55571924645043     -1.23868163877576      0.10904593351524
  C          -1.93689541301154     -1.33749150731657      0.33865551044192
  O          -2.53833941959679      0.21891311491222     -0.23411012443769
  C           1.68411545867447     -0.16462214430734      0.66386754934172
  H          -0.15672014053532     -0.02667582322202      1.79182225516166
  H          -0.16695634235980     -1.63704922913828     -0.81563352261677
  H          -2.29813381728125     -1.23335717542983      1.35533474941999
  H          -2.51798259494253     -2.01660990645970     -0.26758905344238
  H           0.26348062113740      2.12325271539714     -1.82566559394171
  H          -0.74807390016869      0.79261058425951     -1.99590423267663
  C           2.27768537514009     -0.70248581246319     -0.63167404490567
  H           2.11319198856260     -0.71424366786660      1.50856746669565
  H           1.97841827169510      0.87901366056860      0.79007660692916
  H           2.13194412058685     -1.77693326377784     -0.70755992069285
  H           3.34682465480775     -0.50458018671982     -0.65243994004881
  H           1.81812744544131     -0.21866158001392     -1.48853556936363
