22
Coordinates from ORCA-job NEB_product E -32.139276369960
  C           3.33012390367283     -0.99888116814238      0.89294751661884
  C           1.87077244567318     -0.68827449445547      1.12802623068483
  N           3.63002409365229     -1.01358796999820     -0.51656742200319
  H           3.93152778705417     -0.21722092971050      1.37315832348256
  Br          1.48929079283797     -0.15315336364170      2.99253150456670
  C           3.65040326203122     -2.34902420402333      1.59587800383332
  C           2.93785756590554     -3.48114613042055      0.91635009081142
  C           1.90986627984709     -4.11762291984254      1.44518175558623
  O           0.97957991446259     -0.72360171170845      0.35489399356777
  C           5.16518255473046     -2.58618625053825      1.71676525756002
  H           3.26572778599345     -2.26531833308538      2.61879649668772
  H           3.31181693235754     -3.76108366215667     -0.05757387610742
  H           1.51849392949594     -3.86126490446511      2.41689065615560
  H           1.41443717348147     -4.92486432490101      0.93347134410320
  H           3.46847847857004     -0.10369730639938     -0.93338549617609
  H           3.05007937618183     -1.68986405649349     -1.00080904536039
  C           5.90007447297190     -2.82748136874021      0.40420566345237
  H           5.30644929850862     -3.44987425161033      2.37102845765294
  H           5.60249135076938     -1.71977819629440      2.21789819440343
  H           5.60460073941462     -3.77354402042047     -0.04092572568597
  H           6.97070029981184     -2.86610991844727      0.59109281618792
  H           5.69362156257603     -2.02792051450490     -0.30035474002182
