22
Coordinates from ORCA-job NEB_reactant E -32.124984093500
  C           1.14456755717962      0.27256184700953      0.27413888264155
  C           1.85552340907198     -0.53005922277818      1.06852458527218
  N           0.20667825904892     -0.18319257102793     -0.63299159450827
  H           1.32546784946920      1.33571939219916      0.27925702728457
  Br          3.22143922958372      0.26490930975287      2.18271406130954
  C           4.56844153787994     -3.31705510132933      1.68269362692920
  C           3.98892261802902     -2.57817044024515      0.74995900703365
  C           2.54029626180243     -2.69912478413718      0.38669215982175
  O           1.68645433712577     -1.86203091930974      1.19266844508800
  C           5.99460106310506     -3.18945971758809      2.10278769264283
  H           3.99717891235061     -4.08218505480417      2.19400476977689
  H           4.54703769900873     -1.80297059232753      0.24204845937298
  H           2.17064957139643     -3.70725565559183      0.58704602132615
  H           2.38329076674318     -2.44915078150722     -0.67059416917275
  H          -0.55255445380303      0.45242766509427     -0.82172961279564
  H          -0.09885896638226     -1.13210977786469     -0.46702241682603
  C           6.73960031217575     -4.51461561365778      1.94794524360806
  H           6.02246231750159     -2.88499764574192      3.15290569783502
  H           6.48676425642938     -2.41310848081851      1.51490614287291
  H           6.26727856050441     -5.29128959650171      2.54555825999557
  H           7.77161368381274     -4.40933668305564      2.27345217216559
  H           6.73584521796681     -4.83150557576922      0.90723553832625
