31
Coordinates from ORCA-job P E -33.753015496370
  C          -1.38736640453354      0.27328790887274     -2.27528150550150
  C          -0.10845112188033     -1.75090839591888     -0.94007455506290
  C          -1.57096479961789     -1.89585228224775     -1.20382117239030
  C          -2.19294077266040     -0.91288764536218     -1.83529711194138
  C          -0.54337768275238      0.76265837019521     -1.07897472361409
  C           0.16406313702104     -0.37363237655098     -0.31040225014139
  H          -2.08355521837288     -2.77979877569494     -0.85637115513771
  H          -3.25088751571218     -0.95125199528027     -2.03697110509633
  C          -2.22485608779496      1.38664975258095     -2.94930492626778
  H           0.25841784878816     -2.53839871003242     -0.28109349324883
  H          -0.67440974573526     -0.08346925167679     -3.03289567215443
  H           0.44209118304030     -1.81877723839739     -1.88449391177813
  H          -1.19308175862719      1.30367024597836     -0.39131488222667
  H          -0.23544840531508     -0.40463639190819      0.70884401218279
  H           0.20826999520286      1.46171864843957     -1.44474155405764
  C           1.66829153166661     -0.12555179648941     -0.22203275279221
  C          -3.34032906713893      1.90558175220903     -2.03851205417130
  C          -1.32500501581896      2.56412631404430     -3.34325202326859
  C          -2.84539799144446      0.82171979355076     -4.23342339081271
  H          -2.93231904019519      2.37176655567526     -1.14529055131124
  H          -4.00650384686144      1.10435665342770     -1.73103627496049
  H          -3.92958289726185      2.65271392217574     -2.56637120860091
  H          -0.96950491576747      3.10065636127994     -2.46773788809950
  H          -1.88191876834037      3.26580171855417     -3.96096891151880
  H          -0.46518758455939      2.21908442646866     -3.91398992608100
  H          -3.49750428441276     -0.02137717729503     -4.02345397554403
  H          -2.06751577309601      0.48626592029606     -4.91646802547107
  H          -3.43352073044894      1.58666896491258     -4.73628062745461
  H           2.10702336108965     -0.08733082758345     -1.21734059187157
  H           2.15500848743084     -0.92321857015581      0.33573387655670
  H           1.87311388410839      0.81676412593247      0.28174833183762
