31
Coordinates from ORCA-job TS E -33.645921661410
  C          -0.32881894614149     -0.21921169593521     -0.51156787804123
  C           1.06734340952617     -2.40404654802073      0.72754559339550
  C          -0.28637388823706     -2.37438673459724      0.61462813844227
  C          -0.96990224265716     -1.30801064424959     -0.00431818039283
  C           0.64644368526063      0.40968547497931      1.51531477898276
  C           1.44875709467397     -0.58306328779999      1.98189697740768
  H          -0.87909794998840     -3.07890460888377      1.18349718312647
  H          -2.04644416146960     -1.29234986807887      0.09843020391777
  C          -1.05777028477725      0.93647978656695     -1.16335908655854
  H           1.54158326537112     -3.19024128040298      1.29355350809034
  H           0.70157336209546     -0.31646092438610     -0.81478888224317
  H           1.69401367106907     -1.92195595731679      0.00039974643738
  H          -0.33984530043655      0.55028897323550      1.91664304093059
  H           1.10825739836860     -1.18737718709945      2.80986263126058
  H           1.06663915090774      1.22516488277644      0.95564729092829
  C           2.93825840460364     -0.52927898688491      1.78591458387978
  C          -2.13967432367335      1.53322443159534     -0.25906429807419
  C          -0.07127865643921      2.04052119776688     -1.55575800413283
  C          -1.71515595902675      0.39783479054825     -2.44606294861928
  H          -1.69740839303934      1.96142731098322      0.63673046093227
  H          -2.86235565678249      0.77906789262189      0.03972353712764
  H          -2.67173652448868      2.32191941993529     -0.78740339887852
  H           0.37982595800909      2.49238518397597     -0.67572499555947
  H          -0.58454184330216      2.82465002441621     -2.10874439517708
  H           0.72135530549690      1.64300394633775     -2.18658539003433
  H          -2.44788561698707     -0.36884633702002     -2.20853577072209
  H          -0.96546646386178     -0.03906480019898     -3.10225412232118
  H          -2.21576575692314      1.20257245765224     -2.98083697634474
  H           3.19043695136734     -0.07609706035857      0.82946631861781
  H           3.39455910850316     -1.51418947079275      1.84287166746501
  H           3.38047520297856      0.08525961863470      2.57287866615734
