21
Coordinates from ORCA-job NEB_reactant E -43.474634615330
  C           1.22972086547733     -0.48025140916488     -0.14793652969576
  C           1.93418665326718     -0.99184098021064      0.88380034778947
  C           1.93149994582179      0.24254426800968     -1.21180363906061
  H           0.16293873397364     -0.58293838773323     -0.22324954145086
  O           3.25711992483182     -0.81959498784705      0.89898777350867
  C          -1.05965985113561     -2.29634436696432      4.19079835292444
  C          -0.21314752238220     -2.68481630335852      3.25386955587362
  C           0.04418804041285     -1.89664411118992      2.00844864982238
  O           1.44376523298198     -1.67472014555329      1.93007874061158
  Br         -1.39056990001262     -3.31016509185774      5.74288433705089
  H          -1.64165694482602     -1.38918968799943      4.13979995279713
  H           0.35425167626143     -3.59842621020832      3.35287432630630
  H          -0.49022292410247     -0.93921219845380      2.03138357428689
  H          -0.28502075195534     -2.47187780727771      1.13121679123064
  Br          0.69118421153423      0.87036049157453     -2.56503484251843
  Br          2.91659426402669      1.82289217582100     -0.53051604102990
  Br          3.28671482076331     -0.88075315809602     -2.12417377643503
  C           3.99927871024732     -1.35689522570211      1.97932755719332
  H           5.03295736364045     -1.08584431246232      1.77817257891985
  H           3.89563558957820     -2.44285742705168      2.01923258093031
  H           3.67354186159601     -0.92512512427424      2.92753925094509
