21
Coordinates from ORCA-job NEB_product E -43.493272956860
  C           1.14228863510656     -0.69585870465642      1.29159067518300
  C           2.38615837087034     -0.49430124979208      2.17561328179605
  C           1.47981494621532     -0.95312852289720     -0.16254323741472
  H           0.58191277720561      0.25002536569692      1.32793754657509
  O           3.45861338267078     -1.07399662778732      1.66791563265970
  C           0.27249962972057     -1.73968804782400      2.02617203388000
  C          -0.85363949434978     -2.33226042952427      1.25035725695046
  C          -2.11944979795878     -2.05887611911655      1.50957574069060
  O           2.33323998628366      0.10031835509951      3.21449473098811
  Br          1.38191577564321     -3.22836728436147      2.73164785261990
  H          -0.10072993442126     -1.24764397870134      2.92845019154718
  H          -0.58722372448839     -3.05091395240040      0.48749767665595
  H          -2.40813873783194     -1.36638914700835      2.28335384148247
  H          -2.91491585134615     -2.51068677025005      0.94470441961120
  Br         -0.11151367384158     -0.71973964727428     -1.29309981647267
  Br          2.75103486663110      0.40524061151553     -0.78239419004121
  Br          2.22717182298726     -2.69327685990664     -0.53178455184882
  C           4.64447023395546     -1.02573483321115      2.45301389645694
  H           5.41247990160287     -1.51833624862179      1.86329841290989
  H           4.48407979355890     -1.55240725197661      3.39495997342612
  H           4.91513109178621      0.01092134299798      2.65863863234476
