23
Coordinates from ORCA-job NEB E -65.718445524410
  C           0.39148792934952      0.13569872384967      0.91056013963021
  C          -0.99886845717765      0.32749532233385      1.06660264156101
  C           1.22609101449377      1.40607725045167      0.90301988847779
  H           0.85463252515227     -0.59431067398120      1.57109122140859
  C          -1.79344453736947     -0.78413379782936      1.73836720279114
  C           0.45384041418864     -0.61414394544246     -0.82727945323600
  C          -0.23731697290150      0.33718213177707     -1.59464518140588
  C          -1.60166153752659      0.62287286167788     -1.25909110925918
  O          -1.64199756956356      1.10418642797633      0.24153853504341
  C           1.85258357144934     -1.00614627334396     -1.25333231415969
  H          -0.09196973542402     -1.51781473013170     -0.56275977842118
  H           0.32308336827396      1.06688722459713     -2.15815583869149
  H          -2.26637785977783     -0.23944587923534     -1.22907450020226
  H          -2.04200958233445      1.45790381404650     -1.79312459204263
  F           2.53653569132553      1.14851891770927      0.90126075670273
  F           0.98617962660951      2.24156862977191     -0.10597256873668
  F           0.98977496069451      2.09375801272838      2.03131838186221
  F          -2.99059773261996     -0.38169292398101      2.14938724525068
  F          -2.00978781076787     -1.81940161958456      0.88411220554018
  F          -1.14707020488906     -1.30399217367312      2.78663286330773
  Cl          1.64423829559503     -2.19064796134123     -2.58633195344526
  Cl          2.82786818674597      0.33447822716628     -1.87021143820851
  Cl          2.73478641647390     -1.82489756554199      0.05608764623307
