23
Coordinates from ORCA-job NEB_product E -65.755946359170
  C           2.31011820337960     -1.55246509687512     -1.58484047821099
  C           0.97680797339253     -2.25053584518196     -1.31037103834419
  C           2.14425389103949     -0.08950352182861     -1.14272292755559
  H           3.12562608474752     -1.98057061724565     -0.99470380646906
  C           0.99478600376875     -3.26129445765527     -0.12382037483374
  C           2.63476606968777     -1.61467285778853     -3.09500521005769
  C           3.73409754358595     -0.66403562205680     -3.48695178021262
  C           3.56341178330722      0.30677951968392     -4.36335291686763
  O          -0.05224447532314     -1.95041701072873     -1.83737398957497
  C           3.02301507965909     -3.04864778686115     -3.46982122644945
  H           1.72147974853089     -1.36113124516153     -3.64726003125696
  H           4.68633855958740     -0.82567726771068     -3.00443230496589
  H           2.61621822280704      0.48228918320164     -4.84545109642581
  H           4.36793416855273      0.97053627364419     -4.62502454459539
  F           3.32301399177403      0.53370856996556     -1.04924110340189
  F           1.38984828915435      0.62079526133527     -1.97815562472576
  F           1.58003391082622     -0.00867392933480      0.06663685883439
  F           0.07674254102613     -4.20974068862757     -0.27016656204444
  F           2.18267690261293     -3.86238966385766      0.02626177407154
  F           0.74175001926241     -2.61824098339919      1.02104122075918
  Cl          3.23591293853855     -3.16781407783365     -5.22345834170037
  Cl          4.52543771546885     -3.55625581196924     -2.66823108329951
  Cl          1.72547483461368     -4.17724232371442     -2.97005541267311
