17
Coordinates from ORCA-job NEB E -29.733087365060
  C           1.02933715486836      0.54797999333611      0.19112108759401
  C           0.09942978725972      0.82712423682976      1.18766177380582
  C           0.91502333219881      1.27059332861679     -1.12565446019258
  H           2.05330265429025      0.37986584288694      0.51043572061111
  Br          0.61125682907651      0.27886364329153      3.00683962437039
  C           0.37786550520913     -1.26695236104126     -0.23618858501151
  C          -0.97211882203420     -1.06739981143876     -0.48861937867598
  C          -1.77713759917511     -0.56917202011539      0.57463282277895
  O          -1.15223434846518      0.88327354738805      0.96856259176812
  F           1.16381089185622     -1.63095689349416     -1.26741339487720
  H           0.72011563228520     -1.74639785282718      0.67757519128057
  H          -1.27062062356135     -0.88215497303639     -1.50932624367657
  H          -1.68785165623541     -1.08205322036961      1.53026748892762
  H          -2.80215598607320     -0.32268031468932      0.32861867530143
  H          -0.12327899451089      1.49509459592483     -1.35667501535734
  H           1.34723566285497      0.67778757711137     -1.92798825098072
  H           1.46802058015619      2.20718468162666     -1.06384964766612
