17
Coordinates from ORCA-job NEB_product E -29.775870072500
  C           1.66391005897547     -1.61039090620410     -0.35850162042621
  C           0.97626426748921     -0.88484115148809      0.74980139914172
  C           1.38121604216513     -0.92423164250876     -1.69363904017795
  H           2.74224285236451     -1.62140988408907     -0.16080930131816
  Br          1.60271383093823     -1.48259134931570      2.52789168128742
  C           1.19948210861304     -3.09182279217710     -0.36596048980673
  C          -0.26439200555063     -3.22824640639867     -0.65996520227033
  C          -1.18673222855432     -3.31872302159203      0.27865264956768
  O           0.14746654322837     -0.04896922741907      0.70381859743876
  F           1.93298042990373     -3.74471731437555     -1.33282794153330
  H           1.46003795635730     -3.57012792782537      0.58717013757617
  H          -0.51731888911958     -3.24538820885551     -1.70989366055461
  H          -0.93847091794290     -3.31698232469169      1.32775387822964
  H          -2.23178383556560     -3.39569960446188      0.03632399402829
  H           0.31096611893933     -0.80737023490212     -1.84443481827558
  H           1.79461395210070     -1.52099956858086     -2.50256831635314
  H           1.84090371565801      0.06081156488556     -1.71391194655368
