25
Coordinates from ORCA-job NEB E -43.792512783860
  C           0.04888984976073      0.19038273176049      1.19906126342143
  C          -1.34773275444193      0.08538592768766      1.06457880689830
  N           0.60705023189096      1.39713963782235      1.62904664235581
  H           0.60611048454637     -0.69154693791188      1.48028034954899
  C          -2.01611169752895     -1.28841551964596      1.02256449325474
  C           0.48692809907678      0.36768605120316     -0.82844654879971
  C          -0.73550007628210      0.55584890809006     -1.47558482608183
  C          -1.57008881221338      1.59093341220742     -1.09323203444252
  O          -2.03349221704264      1.06573610898871      0.66252165448953
  C           1.36064563005209     -0.79744209662380     -1.21148903775865
  H           1.03386040939224      1.26855981061721     -0.57948022426574
  H          -1.17608907153205     -0.29634297340709     -1.97937799205140
  H          -2.55756600185940      1.67245632793277     -1.51673972859971
  H          -1.13808787254021      2.51699590999074     -0.74695059409034
  H          -0.08647934405692      2.12862656950803      1.71467970762352
  H           1.20340828946845      1.32519429992264      2.43794482843366
  Cl         -3.25705563863875     -1.36232207947624     -0.24009330279972
  Cl         -0.91412901841682     -2.65312679715597      0.80924297691774
  Cl         -2.82610341035430     -1.50354833418360      2.61126792013585
  C           2.72873145433668     -0.77314242556687     -0.54082619184051
  H           1.50527081733309     -0.75564703876312     -2.29606166962683
  H           0.85349325072651     -1.73873410714592     -0.99503657283810
  H           3.24141470809037      0.16162782965043     -0.75606906642069
  H           3.34092380805837     -1.59273344941542     -0.90904993552217
  H           2.64170888217480     -0.87357176608580      0.53724908205836
