25
Coordinates from ORCA-job NEB_reactant E -43.836632873780
  C           1.80576927957855     -0.16943818139527      0.00980835514222
  C           1.67044404288417     -0.81429877306478     -1.16395039017651
  N           1.53789591683208      1.15963188612629      0.17014102867575
  H           2.18567860848596     -0.68948573651896      0.87512020405209
  C           2.08838677509042     -2.24189105156523     -1.31956519066818
  C           3.83518647830995     -0.80844136448299     -4.42726607802479
  C           2.57435228141222     -0.46297696222828     -4.22670334746752
  C           2.11087252496370      0.45325282485993     -3.13726656019078
  O           1.15167018526856     -0.16507488844762     -2.26133914652240
  C           4.29902489744915     -1.72995521904612     -5.50806411862158
  H           4.61200147232030     -0.42562580839317     -3.77678841587491
  H           1.78836589932895     -0.84904865705945     -4.86102266143380
  H           1.56981939587357      1.30059497535362     -3.57369861406330
  H           2.95914474874932      0.82687500039528     -2.55258064484483
  H           1.00980811577035      1.57724039444766     -0.58226677333152
  H           1.29382035730258      1.47255828909665      1.09446912966528
  Cl          3.88359985385691     -2.37770820794137     -1.45587963249321
  Cl          1.62252962720796     -3.21252180947336      0.10310495149710
  Cl          1.37025208943155     -2.98403426943099     -2.74631517036463
  C           4.92938961402761     -2.99152729741596     -4.91813709597457
  H           5.04234945075343     -1.21368920710137     -6.12251782555343
  H           3.45812565389929     -2.00425745450253     -6.14734393945445
  H           5.76358483240828     -2.73468082144455     -4.26907702381131
  H           5.29337123971508     -3.64045006116071     -5.71119431638253
  H           4.19565665908007     -3.53884759960670     -4.33196672377818
