25
Coordinates from ORCA-job NEB_product E -43.832210499960
  C           2.93744232695181     -0.90835250908012     -2.04379065631483
  C           1.64059834779937     -1.69059807469409     -1.93097047248969
  N           2.79728919629874      0.29923523356153     -1.24986462609913
  H           3.76727155678596     -1.48570657958380     -1.62928596882567
  C           1.71900728034695     -2.98083635257918     -1.07587370558334
  C           3.27108354214887     -0.51504208694633     -3.50401262322585
  C           2.13305960713894      0.22929431335171     -4.14084364599162
  C           2.08126041324995      1.54519040304520     -4.23838733244136
  O           0.57602615398174     -1.32178719005705     -2.33861634680535
  C           3.65285700960779     -1.73209406708351     -4.35608519722409
  H           4.13009316524786      0.15927504883472     -3.42769327502329
  H           1.32927366323915     -0.38077831977801     -4.52771771821404
  H           1.25030716843791      2.04885280134790     -4.70206733655583
  H           2.87200925639043      2.17316404742365     -3.86014305732334
  H           2.06613311359705      0.88967984467818     -1.63322091611482
  H           2.58253089476640      0.08748851406975     -0.28231384018048
  Cl          2.88318511083137     -4.11204234326780     -1.78619780907885
  Cl          2.26576897171972     -2.53353700186184      0.55972245011568
  Cl          0.13556781651544     -3.76402312001710     -0.96582424832826
  C           5.03446497878060     -2.28660271694986     -4.03100767827902
  H           3.64050314767501     -1.42261242319708     -5.40367712150365
  H           2.89934986058208     -2.51336657133709     -4.23521504218243
  H           5.79013035826062     -1.51400471434997     -4.15278815402690
  H           5.27266231219256     -3.10747792141042     -4.70291195360814
  H           5.08602474745366     -2.66161821411937     -3.01281372469567
