21
Coordinates from ORCA-job P E -37.204855643480
  C          -1.20829946110204      0.54817654690208     -2.31741793961753
  C          -0.53907430883301     -1.73892713911375     -0.55664957839406
  C          -1.21884153444243     -1.88775956347576     -1.87995860932672
  C          -1.53022432826566     -0.87650259059369     -2.67048958688550
  C          -0.98697554620862      0.70596617824469     -0.81161282039480
  C           0.03306336873624     -0.33416675393888     -0.34246377976471
  H          -1.46407804431266     -2.89905442313238     -2.17071830109184
  H          -2.01453123740061     -1.03449885784787     -3.62263973954031
  C          -2.32475344003161      1.46884501938173     -2.78021433008061
  H          -1.25964095161440     -1.96240999529324      0.23603818450974
  H          -0.30101240332140      0.85425680386739     -2.85237781307651
  H           0.26289823108290     -2.47725793091035     -0.47927842113380
  H          -1.92930491150807      0.54880671634242     -0.28415287798992
  H           0.20377245314909     -0.18857598266172      0.74182772519858
  H          -0.63072747293120      1.71416783033793     -0.59149824428298
  N           1.25415384794482     -0.17775928981501     -1.11898535615329
  F          -2.53039688871526      1.40729480279187     -4.10574086536105
  F          -3.50443015236936      1.19132648101533     -2.20232053119830
  F          -2.06721772446559      2.76011302672842     -2.50320698976882
  H           1.65601637446721      0.74054188443927     -0.96456771222476
  H           1.94261413014167     -0.86976276326850     -0.84658241342278
