21
Coordinates from ORCA-job R E -37.116943510590
  C          -1.29196099706757      0.02889585611609     -2.80985924273205
  C          -0.65111160723085     -2.54431882777400     -1.40507659879870
  C          -1.85798180724791     -2.16686906656279     -1.81588531267556
  C          -2.17703860884883     -0.89601180553229     -2.43996612823624
  C          -0.86625902926445      0.69226522072888      0.54558856452939
  C           0.38110750177563      0.31492793206230      0.30148303629164
  H          -2.70149293872900     -2.82997188906418     -1.67894218673302
  H          -3.22950426572826     -0.70783183975877     -2.60989528299104
  C          -1.68569146635922      1.32869345952253     -3.41984946285879
  H          -0.49563906417829     -3.50145698735912     -0.93653241316175
  H          -0.22684383732614     -0.07496647936710     -2.67525389909919
  H           0.21280895982380     -1.91084148047536     -1.50788749127931
  H          -1.45464443567178      0.21685981852556      1.30770691829071
  H           0.85095330187340     -0.47502289514115      0.87258172339460
  H          -1.33412978296592      1.48056875740723     -0.02185082178482
  N           1.16689693625144      0.79866334712929     -0.73794809512613
  F          -1.13814155405004      1.50907738587263     -4.63875347029505
  F          -3.00669560506919      1.49037192105869     -3.57216384886081
  F          -1.26058522485726      2.37669480493577     -2.67797434787168
  H           0.82468490165107      1.66734593653202     -1.12897418016512
  H           2.15739862321939      0.82970683114378     -0.54297745983704
