19
Coordinates from ORCA-job NEB_product E -42.124298688860
  C           1.68759414545871     -0.18040973618546      2.49331664651515
  C           1.24379671068482      0.63474556398884      1.28427275463948
  N           1.65550281310491     -1.59458824230571      2.23526249039142
  H           2.71481833003987      0.11191075930209      2.74463592130370
  Cl          1.48179122854855      2.36920764754588      1.48763447854671
  C           0.77403829641446      0.19142251831595      3.69258614383249
  C          -0.66325237202390     -0.17364422212974      3.43992813597295
  C          -1.60362118293709      0.71821689472169      3.19567753996051
  O           0.79139306401467      0.20237245621585      0.27899686019003
  C           1.26972235040883     -0.50205523662361      4.96096345290988
  H           0.86394210491519      1.26709639980989      3.87552709215519
  H          -0.88390716424684     -1.23091195092600      3.46943626047446
  H          -1.39686042773263      1.77549566985716      3.17240756426337
  H          -2.62125128877007      0.42502924952933      3.00791616513356
  H           2.37917315218826     -1.86757536223888      1.58246620601948
  H           0.76071045745897     -1.87723449425829      1.85179469136836
  F           1.07197237277508     -1.81975075686234      4.97600444949409
  F           2.58046310089007     -0.30047510865187      5.16683907649037
  F           0.64117430880814     -0.01105204910477      6.04273407033880
