18
Coordinates from ORCA-job NEB_product E -42.622108614260
  C           2.18445374171079     -0.03493886822420      1.97446195286470
  C           1.50992762194597      1.28101757679282      1.55897451434841
  C           2.39173558540898     -0.96028217525001      0.77601270010027
  H           3.17788233129741      0.24064345970117      2.35700266698659
  C           1.73539113718586      1.75622773226537      0.20453546035198
  C           1.38401009058672     -0.61989073717720      3.15972295331678
  C           0.18178836710614     -1.41930861053611      2.77604133377204
  C          -1.05008643827830     -0.97613579754801      2.94900967905861
  O           0.84070596746989      1.93646841682084      2.31037292799615
  Cl          2.46271405776917     -1.61267176815362      4.20027200990059
  H           1.08091982990822      0.22936027991998      3.78079815490762
  H           0.37092863015519     -2.40222577319103      2.37191839382683
  H          -1.25211432383272     -0.00128423775779      3.36126289014879
  H          -1.90381888335374     -1.56849523261337      2.67092697393330
  Cl          2.85616977284399     -2.60283156694559      1.23939335820793
  Cl          0.89965315548946     -1.03849856621118     -0.20533026071385
  Cl          3.70875002035808     -0.31016713001246     -0.25126423559515
  N           1.82728933622888      2.26841299812037     -0.81481147341160
