29
Coordinates from ORCA-job R E -36.970116482890
  C          -1.49795558889934     -0.20357352160926     -2.68731317362277
  C           0.50139315097169     -2.46042847429256     -2.99126616766505
  C          -0.75661068359760     -2.58157399315175     -2.57440757709088
  C          -1.70103790828955     -1.50039844916751     -2.41357998278863
  C           0.39031667335194      2.80266540102969     -0.32864371410121
  C          -0.01644553562756      1.55112872491079     -0.11008199385459
  H          -1.13392973704695     -3.56379972177512     -2.31921090811410
  H          -2.67803071172124     -1.77301140486144     -2.03249757720132
  C          -2.55364300569117      0.79606996199077     -2.45725154302368
  H           1.14824352412224     -3.31613512470803     -3.08068987477669
  H          -0.55565776349604      0.16082050280880     -3.07195491932816
  H           0.92969428999820     -1.50678899570107     -3.25494252385846
  H          -0.27294430595889      3.62428387261993     -0.12949956742340
  H          -1.01347508712095      1.37439858848300      0.27367990009823
  H           1.36736037787636      3.05486009511097     -0.69430335614307
  N           0.66046422354133      0.38296410754074     -0.38776897718388
  O          -3.62190070987912      0.52074548982335     -1.95320107574305
  C          -2.19206660653135      2.19500503042098     -2.89098373667992
  H          -1.90328663275121      2.19625462599475     -3.93934133235956
  H          -1.33753525945948      2.53836973717615     -2.30367433630824
  H          -3.03235341555239      2.86679395184317     -2.74060047990794
  C           0.32533984481144     -0.79234563073855      0.37934588263420
  C           2.04282349487194      0.46234037691402     -0.78808924100932
  H          -0.75250293594642     -0.83855176182277      0.52910902016307
  H           0.81609199779066     -0.80425462728359      1.36227427098820
  H           0.63460228978121     -1.68021992058039     -0.17742417987273
  H           2.70103489629027      0.80058508927378      0.02298390301002
  H           2.13823575146537      1.15390599662512     -1.62213372274474
  H           2.37154537269663     -0.52430992687395     -1.11307301609232
