29
Coordinates from ORCA-job TS E -36.951968484860
  C          -1.29505081817845      0.28897051725545     -1.01692181703468
  C           0.00045403417116     -2.15653498194680     -0.28549754179219
  C          -1.33642115631092     -2.08817627089964     -0.51472447644314
  C          -1.98096097803714     -0.91221883247071     -0.91830325698852
  C          -0.69318515583089      0.62227391502468      0.96286974530574
  C           0.20461273506362     -0.33223006486389      1.39000785777043
  H          -1.95841459700954     -2.92757463164501     -0.23214221777536
  H          -3.06034734060936     -0.87390292649422     -0.91003629874491
  C          -2.06269578985310      1.51414071077620     -1.31360728436910
  H           0.43483291592229     -3.04359939120823      0.14539236483756
  H          -0.27309629873443      0.29076853192972     -1.36611076528772
  H           0.68812724386780     -1.47338373563352     -0.74677187778492
  H          -1.69469243389804      0.56438263058919      1.34982719526805
  H          -0.15378341452094     -1.15799728849002      1.98340513486773
  H          -0.35188188549777      1.62048467646159      0.74840469501597
  N           1.57046084698015     -0.19157603978612      1.40373589002610
  O          -3.23290069128528      1.64767891974009     -1.03133290072107
  C          -1.27359765280574      2.60669931179710     -2.00478923061182
  H          -0.36823018636994      2.83545815758545     -1.44713430618774
  H          -1.87984847826414      3.50317489645628     -2.10295485705174
  H          -0.98246449011711      2.26042414659052     -2.99519137382298
  C           2.37742071913019     -1.31047051323116      1.81896196378838
  C           2.24317344815680      0.69921458983827      0.49368545457989
  H           1.83595441229021     -1.90886097732340      2.54781242233220
  H           3.29216701067731     -0.93906875240040      2.28464109219179
  H           2.65755692315872     -1.95292623145609      0.97458054770058
  H           1.65474936033118      1.59884837065043      0.33937277938552
  H           2.43398786033027      0.23051448749898     -0.48119283231549
  H           3.20407385724309      0.98548677565526      0.92401389386144
