19
Coordinates from ORCA-job P E -36.795642724690
  C          -1.28867292412893      0.41589201087872     -2.35595617547319
  C           0.03545843943043     -1.59553157656425     -1.06357889788142
  C          -1.27866258795741     -1.91486383971559     -1.70241313450671
  C          -1.92483550461397     -0.94480711710818     -2.32898354643484
  C          -0.85499644409680      0.80805257417287     -0.92888349031134
  C          -0.11923628501842     -0.33227640420001     -0.21500440422499
  H          -1.66591410378689     -2.91772790992968     -1.63346899247929
  H          -2.87737720078506     -1.08685425504880     -2.80957995949363
  C          -2.21480366316518      1.46002120281352     -2.96378501275991
  H           0.39500807918799     -2.41727958282034     -0.44407648997346
  H          -0.39299848644793      0.37865460518607     -2.99049043806115
  H           0.78126388615533     -1.41196583163088     -1.84411988687167
  H          -1.74909799344630      1.06470340618763     -0.35814112817087
  H          -0.63086655884328     -0.58281956278945      0.71550151970733
  H          -0.23020192387106      1.69948181338138     -0.98239156311826
  Br          1.67704201771819      0.25042917934675      0.36946537473306
  Cl         -3.73820980845166      1.57873349152478     -2.05454824561844
  Cl         -1.44940909589076      3.06665383326040     -2.98621893185451
  Cl         -2.60545984198831      1.02069396305508     -4.64663659720671
