19
Coordinates from ORCA-job R E -36.705095600750
  C          -1.30995985747690     -0.09722003504801     -2.94919945565983
  C           0.14891737317699     -2.59027173553382     -2.07403691308717
  C          -1.10163421871771     -2.26007838124838     -1.76339726019087
  C          -1.75154334672736     -0.99930628695078     -2.07222374511975
  C          -1.11825171536300      1.79260809206394      0.46368808806676
  C          -0.48429504199523      0.64359773114689      0.36711697909721
  H          -1.71517522176326     -2.96071359161225     -1.21189745650663
  H          -2.67380781492846     -0.80851527406760     -1.53939695701354
  C          -1.96232698982674      1.19590228865481     -3.25075697556556
  H           0.55944971299356     -3.54541970305089     -1.79580275924132
  H          -0.40623476903922     -0.26411731695962     -3.51709384699937
  H           0.81116050342724     -1.92035673355063     -2.59375851440248
  H          -2.09908290728859      1.84517020135196      0.90635763350888
  H          -0.87122063986665     -0.30513564657578      0.70210698013145
  H          -0.69160010861994      2.71402460712252      0.10549078706330
  Br          1.23092539953585      0.48530429194872     -0.41553936786918
  Cl         -3.36658094905185      1.55305535420417     -2.23627374108708
  Cl         -0.78250767331934      2.52607184640908     -3.03920345497443
  Cl         -2.50177173514941      1.21524029169564     -4.96461002015038
