26
Coordinates from ORCA-job NEB_reactant E -42.800953627630
  C           1.12406456527670     -0.28372077349201     -0.46054515172526
  C           1.03261224934766     -1.60584153087668     -0.60109615174539
  O           0.61176167923537      0.65718200401396     -1.33106070556399
  H           1.62699301502319      0.11582305978085      0.41108431195808
  C           1.55210404203421     -2.54277882811005      0.45551749148681
  C           2.17224564214081     -0.94607871147006     -3.44567314071134
  C           0.85131006210330     -0.78460743326291     -3.48160330145758
  C          -0.12254908732275     -1.59006523428538     -2.69058813582751
  O           0.44296376910969     -2.30756940550551     -1.62374721391389
  N           3.03946453671290     -0.10640614494736     -4.20181125613071
  H           2.68945354944521     -1.67750930971516     -2.84440991029172
  H           0.43451665403108     -0.01851865044671     -4.12175070113875
  H          -0.57334171509166     -2.35039502235416     -3.34073677689816
  H          -0.92057094825620     -0.92749382428736     -2.33256181138870
  C           1.32445180419746      1.87176663998636     -1.35092367886928
  H           0.78560789166741      2.53448136189531     -2.02501631649507
  H           2.34544497447631      1.73000992109837     -1.72156211895296
  H           1.36899237351568      2.31931679747196     -0.35241581244110
  C           0.42822368512617     -2.99493210116172      1.38837097899621
  H           2.33621598529342     -2.05074568940190      1.03024278345865
  H           1.97496661174420     -3.41585979288666     -0.04317452643771
  H          -0.00251062294589     -2.14011112489945      1.90392638330196
  H           0.81099906695719     -3.69265247684737      2.12878640785403
  H          -0.35458612284931     -3.48717103631508      0.81780719554418
  O           2.55104912195191      0.74015304830957     -4.92303384092846
  O           4.23291721707596     -0.29257574229086     -4.06682500168233
