26
Coordinates from ORCA-job NEB_product E -42.805284042900
  C           2.18283364938473     -0.60381894000066     -1.32310146625149
  C           2.13632066716927     -2.02359255624166     -0.73300297998217
  O           1.42723937369290      0.27979742416223     -0.54878801611731
  H           3.25000361850226     -0.30762244259163     -1.32007805840859
  C           1.60015951848166     -2.14718105810298      0.66172155244516
  C           1.74532112555117     -0.68650738591245     -2.81183529567929
  C           0.26019716765522     -0.77717952766860     -2.95887465704257
  C          -0.36106596515594     -1.89565533646985     -3.28062288329443
  O           2.50866818949120     -2.95995219429533     -1.39180876774792
  N           2.29475015450382      0.46923876503225     -3.56589387483329
  H           2.23720366697664     -1.58120169179618     -3.21626257078430
  H          -0.28796031445068      0.13238332929327     -2.75991966272388
  H           0.17814191908851     -2.80783645160275     -3.47693819881280
  H          -1.43311510824270     -1.94457470713554     -3.35311724692918
  C           1.71117978973614      1.64808448385843     -0.74774000731832
  H           1.31284242356640      2.01601715965014     -1.69867150320741
  H           2.78892224895850      1.83989015315690     -0.71481306156142
  H           1.22129118149338      2.17862529801326      0.06644692255845
  C           0.07037114623899     -2.21362338413995      0.59052760560496
  H           1.89817619806469     -1.28469626697385      1.25539335648479
  H           1.98828790904019     -3.06502572717981      1.10500712150981
  H          -0.32364824296078     -1.29597405972825      0.16444626107461
  H          -0.33585051901041     -2.34187313592874      1.59004803050794
  H          -0.24275247522889     -3.05296599759640     -0.02553268101050
  O           1.55185284772499      1.06502859558631     -4.30665506791945
  O           3.46382982972875      0.72651565461182     -3.39383485056141
