19
Coordinates from ORCA-job NEB E -48.555364678080
  C           0.74224622836916     -0.55695982225769     -0.53373426526908
  C          -0.18528792183336     -0.30425984855338     -1.68550765798560
  N           0.68793492009738     -2.05309291929941     -0.14090691497824
  H           1.79059757180729     -0.36132506747705     -0.78019628860340
  Br          0.26181144819426     -1.07743918821865     -3.34649320285593
  C           0.26417904470752      0.25030930798454      0.63516578023205
  C          -0.93540167345670      0.82165171699110      0.61589683920058
  C          -1.86919198117810      0.64172856404953     -0.51906247321304
  O          -1.48705000643191     -0.21298194011941     -1.47987169208013
  C           1.18146498214686      0.43218253014432      1.82340735978723
  H          -0.49750855114447      2.24415298979500     -1.27351685126358
  H          -1.25501322626054      1.51670368697054      1.37038200717935
  H          -1.51811675836269      1.74839575814133     -1.09834247936292
  H          -2.92207462554487      0.56309480591735     -0.28549289959902
  O           1.73779358433084     -2.59921373337640      0.04552676892345
  O          -0.41074635618612     -2.51814576873579     -0.01761901573524
  F           0.62380195634364     -0.06563424940891      2.93735286011093
  F           2.34462712897768     -0.18933660876773      1.67850039699871
  F           1.44593423542412      1.72016978622062      2.05451172851401
