19
Coordinates from ORCA-job NEB_reactant E -48.658559924370
  C           2.02583882178190      0.36156293729498      0.56594389374706
  C           1.48140312451783      1.15416837426602     -0.37742037993483
  N           1.74705866481098      0.34402130527387      1.95401709576890
  H           2.76396021743796     -0.37056139453717      0.27505637831780
  Br          1.93468894775153      0.76821347350321     -2.18442573081840
  C           2.10235602405614      3.55195187274354      2.64487909519331
  C           1.83451603406146      3.50318411889667      1.35053555953726
  C           0.52985054322506      3.02828890119354      0.79217319286512
  O           0.71048235631191      2.21759805016000     -0.36855593170123
  C           3.39715081763294      4.09193360009308      3.17222554227303
  H           1.40458814498111      3.23697280001916      3.40643222326691
  H           2.57004692922760      3.81880207170652      0.62027873749119
  H          -0.04598272120770      3.88165021012482      0.41980662112954
  H          -0.04907623232212      2.49266703519668      1.55250703970743
  O           2.60566543340530     -0.11394230661912      2.67399708465029
  O           0.66341088657455      0.75091929233865      2.34076779130314
  F           4.35637223636411      4.15083563083553      2.23662242321034
  F           3.25046178574370      5.34412630012564      3.64380222936726
  F           3.87790798564574      3.35890772738435      4.18005713462590
