22
Coordinates from ORCA-job NEB_reactant E -45.822395646510
  C           1.73353123708188     -0.22167992245835     -0.02952690838166
  C           1.28253260013605     -1.35810303447402      0.54400101915353
  C           1.54082504032853      0.31560815690731     -1.38113433372249
  H           2.27866114896464      0.42010704116020      0.64427352165483
  O           1.52520723606262     -1.46723841412635      1.86449834297659
  C           2.62305389252607     -4.13790834003484     -2.46688045641373
  C           2.24003043121430     -3.34006337174026     -1.47177789434029
  C           0.82670534896619     -2.89952768994393     -1.26143734405569
  O           0.59744129320815     -2.40151573979572      0.04776878034663
  C           3.96557087063239     -4.52233629426540     -2.64492748212073
  H           1.92197677660962     -4.52569624933053     -3.19430118882616
  H           2.96681034864221     -2.96271389924264     -0.76425844491026
  H           0.13890925644518     -3.74735471303996     -1.34189041149934
  H           0.54137424059800     -2.16254965848578     -2.02029070002164
  Cl         -0.15785490247567      0.19869060456409     -1.94679861847721
  Cl          1.97770860147675      2.03600210145395     -1.40794082148582
  Cl          2.58060810435013     -0.48964931576569     -2.63885748318298
  C           1.09124595741405     -2.63977116118332      2.53422432799718
  H           1.41060735432235     -2.51180745086550      3.56587749617901
  H           1.55279561882101     -3.53458122209091      2.10993644938422
  H           0.00508201653321     -2.73931497904058      2.48812852685045
  N           5.05437752814233     -4.84919644820179     -2.79298637710443
