22
Coordinates from ORCA-job NEB_product E -45.850175473010
  C           2.64322317374894     -1.93396405013142     -0.45222475434976
  C           1.67611518457070     -2.50919276388620      0.60330176383827
  C           2.43424439095981     -0.43869786861992     -0.67802433541540
  H           3.65497851104389     -2.06171531117608     -0.04287477781496
  O           1.39115163896447     -1.64010490804500      1.55581218918942
  C           2.53284950498559     -2.80837092936550     -1.72872667900865
  C           1.34815166009863     -2.48175054537758     -2.60485301461723
  C           0.23981252583489     -3.19664320064255     -2.59384448043850
  O           1.27070362940167     -3.63831754355175      0.56811466477667
  C           3.75401596376698     -2.75867430379556     -2.50191917847979
  H           2.42042715025398     -3.84040047905593     -1.36766022749520
  H           1.46365086188382     -1.63461606152621     -3.26519938150086
  H           0.11776641757298     -4.04545566245425     -1.94125056012771
  H          -0.59469794138322     -2.94888386323949     -3.22647880826683
  Cl          0.71376668946197     -0.04799082507470     -0.88122038755602
  Cl          3.06030408981448      0.48903679319438      0.70788398366446
  Cl          3.31719724715359      0.12674805453814     -2.12073054595645
  C           0.51296666768302     -2.09131026180664      2.58312006056121
  H           0.42232071916717     -1.26506155450020      3.28259680225030
  H           0.92901702028043     -2.97209529912595      3.07497948627387
  H          -0.45968266210562     -2.34664624767635      2.15954668537884
  N           4.71441755684184     -2.75739316868123     -3.12074850490568
