20
Coordinates from ORCA-job NEB E -37.736947309150
  C           0.42221185735985      0.58812659228758      0.74902216988633
  C          -0.81035509053933     -0.07836946334320      0.72523673409752
  C           0.51196676812286      2.05087455867470      0.37090446918635
  H           1.03390977323783      0.42156226688414      1.63080461018985
  C          -0.97084289450001     -1.25843465906498      1.66953719867951
  C           1.35892774079331     -0.27028842941687     -0.76308489207349
  C           0.41792740224397     -1.04700131685574     -1.42857971445885
  C          -0.81167489010304     -0.40229231855427     -1.76263400296318
  O          -1.53390698177631     -0.10208240665297     -0.35058101870412
  H           2.20084444201852     -0.77198339526363     -0.30539761350886
  H           1.62070388245542      0.67095865017547     -1.22306865730199
  H           0.37339896015041     -2.10739155801789     -1.20984938772647
  H          -1.56757254180816     -1.00478322874138     -2.25394556507220
  H          -0.72461296538614      0.58894041127861     -2.19731198282237
  F           1.80791541533966      2.45855954557948      0.36267102243820
  F           0.02174592202356      2.35782347785232     -0.84758624538819
  H          -0.01932916953868      2.68108056466269      1.10485108468726
  F          -2.28753457905821     -1.58933480043916      1.82394542407258
  H          -0.57062707303631     -1.04290959693823      2.66445299835068
  H          -0.47309597799920     -2.14305489410666      1.24061336843146
