20
Coordinates from ORCA-job NEB_reactant E -37.782187532300
  C           1.33597335850995     -0.13872534252115     -0.17495661323214
  C           1.48741561989441     -1.45240465085726     -0.38774731391903
  C           1.73035131042499      1.03900285778362     -1.00252150934045
  H           0.84709175384331      0.13353752580694      0.74627311448747
  C           0.97967651967745     -2.44285012830757      0.64289757859040
  C           4.28403961293543     -2.62586573920654     -4.03527696979191
  C           3.12231276184021     -2.65246726043523     -3.41197776816977
  C           2.62140091205308     -1.55354927505466     -2.52718390500939
  O           2.02943046600627     -2.16605751647927     -1.38184250352711
  H           4.59765107053157     -3.42488402780890     -4.68410583573896
  H           4.96323801004931     -1.79569032303088     -3.93313053879843
  H           2.44579438060694     -3.48898694991749     -3.51464575320023
  H           1.86431823957660     -0.97173216000747     -3.06768790733376
  H           3.44341288153033     -0.89615158712533     -2.23147408136779
  F           3.07558198196609      1.11722223277514     -1.22598021738492
  F           1.16251516389194      1.04211860717451     -2.24448330992197
  H           1.43560383856640      1.98065913213614     -0.51759458270153
  F           0.39219003646036     -1.83813693013280      1.71501204925518
  H           1.81405010981791     -3.04406546149272      1.02012165599918
  H           0.23265197181744     -3.10157300329908      0.18690441110516
