20
Coordinates from ORCA-job NEB_product E -37.791841949430
  C           2.43114164260219     -0.78342361211217     -0.75220671995155
  C           1.18386782759867     -1.53905589964036     -0.30278130549602
  C           2.04481421346330      0.62975356538503     -1.20445596102102
  H           3.05968492785506     -0.64944597788737      0.13767921708864
  C           1.43868689502040     -2.99525240132021      0.06745319714683
  C           3.25878225268472     -1.51224703791006     -1.82668763751301
  C           2.46303882977692     -1.84872750228985     -3.05376970236688
  C           2.89165263793220     -1.64301124947555     -4.28371295676311
  O           0.10697852681522     -1.02517671730145     -0.20304398874077
  H           3.66866578252877     -2.42888944866196     -1.39286572633873
  H           4.10000427878703     -0.87358997267734     -2.10449030598449
  H           1.48713147915030     -2.28257398756157     -2.88121455321964
  H           2.29980045826953     -1.90748692866766     -5.14182922463319
  H           3.85184584080612     -1.19662846162975     -4.48289365882233
  F           3.15954734259913      1.39812476648280     -1.30215631766667
  F           1.47152236286037      0.64263572568901     -2.42366372994693
  H           1.35418479360609      1.11994380510498     -0.50159083436702
  F           0.36435538606056     -3.52069860362911      0.72164060283154
  H           2.30395513463968     -3.08343249721114      0.73399812065330
  H           1.59563938694373     -3.60031756468626     -0.83280851488894
