20
Coordinates from ORCA-job NEB E -39.746603419380
  C           0.62609298632969      1.37735784063860     -0.07724646682095
  C          -0.57447978047904      0.91473145258998      0.47504576369235
  I           0.48052053321402      2.45551627670038     -1.87271944677643
  H           1.38241912352606      1.75414042124288      0.59722453867176
  O          -0.54900343159163      0.70775524721311      1.81099338292635
  C           1.24247029249647     -0.49984485483101     -0.62935063774157
  C           0.21614525786481     -0.90747845568219     -1.47183713781279
  C          -1.06818208600482     -1.08661707584684     -0.90969608573946
  O          -1.49598492798196      0.42258845227107     -0.26028939814022
  N           2.53100020090977     -0.20912972474821     -1.20288320292137
  H           1.33571163537229     -0.88090185198122      0.38207941660107
  H           0.31220478374457     -0.67674819562014     -2.52329700449915
  H          -1.13576171260077     -1.67714099543613     -0.00240132946821
  H          -1.89012657882523     -1.25346577480951     -1.59230203209901
  C          -1.66099676897787      0.05370431723470      2.40405241040308
  H          -1.79497527074127      0.50061101225676      3.38740314172564
  H          -1.45434348497717     -1.01353562997772      2.51520306048024
  H          -2.55872260358038      0.19373526590458      1.79928665853733
  O           2.56018593383434      0.19815793450174     -2.34112657292715
  O           3.49582589846810     -0.37343566162083     -0.48813905809149
