20
Coordinates from ORCA-job NEB_product E -39.804077937670
  C           3.70149198108138     -1.77151786909912      0.40669285598723
  C           2.58953614486805     -2.25783910977007      1.32716134787876
  I           3.34089461414808      0.24923722649258     -0.22746909690176
  H           4.62069485294198     -1.73785716402510      1.00122389898017
  O           2.01661746258838     -1.26400841661975      1.98068796798946
  C           3.87525702848006     -2.75632707566128     -0.75627955171831
  C           2.73961671978023     -2.70437728603572     -1.73285750807037
  C           1.76324577144725     -3.59073034582137     -1.75020139817915
  O           2.31062432790113     -3.41940098858638      1.45522664425470
  N           5.16028481944440     -2.42965435734052     -1.43281739338212
  H           3.98215095413122     -3.75755198512968     -0.32119518872422
  H           2.77246377070916     -1.87440836020349     -2.42598594964465
  H           1.72967967030703     -4.41349179140029     -1.05514067962544
  H           0.95184613553680     -3.51572569825543     -2.45257082366507
  C           0.99098501252386     -1.60853004962045      2.90462377837200
  H           0.63755927306942     -0.67012124773789      3.32279247860246
  H           1.39083205874109     -2.25540299123285      3.68741095606766
  H           0.18274591324104     -2.13104093050608      2.39024993673453
  O           5.16870237132243     -1.48225434994030     -2.17501059910403
  O           6.10707111773703     -3.12349720950681     -1.15604167585185
