20
Coordinates from ORCA-job NEB_reactant E -39.772918296950
  C           2.48350609270727     -0.23608049962424      0.11423103431906
  C           2.02764527353870     -1.31210019360398      0.76099465258192
  I           2.83091456975807      0.10317167070041     -1.92790640424643
  H           2.70213351188097      0.62615589177631      0.71658859083833
  O           1.91320670264150     -1.16520860451095      2.10562772084592
  C           4.29156875729445     -3.12226534241303     -0.58006744022770
  C           3.23994456297721     -3.16410340540179     -1.38991459105831
  C           1.82071619954820     -2.99224625415806     -0.96741953014551
  O           1.64699341164968     -2.54892532410387      0.35756428267298
  N           5.61923689398349     -3.32664936414292     -1.08147661415309
  H           4.26017015599960     -2.93148029600513      0.48166980046926
  H           3.39824587905997     -3.35933415715087     -2.44319268834871
  H           1.33309643388472     -3.97556826346519     -0.98651127304309
  H           1.28828237482618     -2.34846098925929     -1.67614487751901
  C           1.40164019257149     -2.25222413651584      2.85610970428230
  H           1.39180426718930     -1.90240569179294      3.88594714203952
  H           2.04091442540813     -3.13390638070489      2.76932062923745
  H           0.38869240109851     -2.51069942320853      2.54012325073553
  O           5.75872589431377     -3.57517084887238     -2.25826328262820
  O           6.51746199966878     -3.24359838754283     -0.27218010665220
