20
Coordinates from ORCA-job NEB_reactant E -49.917948470380
  C           2.09896512236784     -0.00195478392082     -0.00209457293122
  C           2.85742882376321     -0.59498984839404     -0.92425048378061
  C           0.90407739524730      0.81261111540130     -0.37145750170997
  H           2.31701728599664     -0.07547015964845      1.04680317940694
  H           3.71820813407168     -1.18424405606210     -0.62134405197947
  C           2.81939843289452     -3.45346470080819     -4.18287437772007
  C           2.94077692732997     -2.71220976821737     -3.09361332042832
  C           3.39363919475170     -1.28206373573025     -3.10547678700602
  O           2.62271693089905     -0.47903110924042     -2.23475378736385
  C           2.40464011824881     -4.87993290446807     -4.21536040775669
  H           3.04092349603405     -3.05175700059190     -5.16193237906952
  H           2.70711594079695     -3.11563878278431     -2.11787685751599
  H           3.27566263420735     -0.84010170167958     -4.09655741094004
  H           4.45553188585032     -1.23860579758709     -2.81839134091414
  F           1.20931018979832      1.89857683287193     -1.10649790716242
  F          -0.00356898592724      0.12508791643045     -1.08787996593094
  F           0.26135846392765      1.26526358598230      0.71646207806536
  Cl          0.96938154668545     -5.05235495890890     -5.26754521155301
  Cl          3.73272889505202     -5.85362294868668     -4.92090872658710
  Cl          2.01478756800442     -5.54899719395783     -2.62695016712290
