20
Coordinates from ORCA-job NEB_product E -49.920919650450
  C           2.07011430025503     -1.76421351406482     -1.37770108487311
  C           0.59575864125482     -2.13325930537617     -1.14770055062839
  C           2.17712843737629     -0.25883904864085     -1.12274173582735
  H           2.71897700590978     -2.25707873118301     -0.64883519354025
  H           0.39528099038081     -2.59501541848007     -0.16762752109385
  C           2.48306001159182     -2.11720495728937     -2.82216393673828
  C           3.69027882988812     -1.35664181410844     -3.30087576238674
  C           3.65458681263338     -0.52754925964353     -4.32594448645597
  O          -0.26776185734342     -1.87673172718818     -1.92909764462082
  C           2.74647794513064     -3.62310923888739     -2.91580038709723
  H           1.63071075875597     -1.88701074820981     -3.47419474193465
  H           4.60259556776387     -1.52751202676256     -2.74883293488276
  H           2.74894081006773     -0.34165201498345     -4.87888740892230
  H           4.53193337939342      0.00637013731569     -4.64497332344888
  F           3.44623864279294      0.15372450447305     -1.01271198578452
  F           1.60879655514721      0.47812210821317     -2.07513881375139
  F           1.58280899175258      0.07121951886292      0.03530670786422
  Cl          3.03624145273185     -4.07414214114468     -4.60506782939819
  Cl          4.16250078807875     -4.10030813043310     -1.94994416972112
  Cl          1.34533193643840     -4.54926819246940     -2.30886719675842
