23
Coordinates from ORCA-job NEB_product E -63.230982177900
  C           1.23088059932174     -2.31071859870340     -0.34639111492436
  C           0.27617710515823     -2.02818651531093      0.81553292773071
  C           1.41318923058320     -0.96434211686773     -1.05158437833498
  H           2.20582214138525     -2.63318075769501      0.03107474681290
  C           0.85151763146728     -2.05954746142419      2.25039649910201
  C           0.66588828901286     -3.39664213692117     -1.29824557100845
  C           1.55405149851596     -3.56830512590369     -2.50314262906605
  C           1.14501532336332     -3.37103275758187     -3.74272521769396
  O          -0.87312534353837     -1.75553642111244      0.64022181151457
  C           0.50872543534927     -4.76409562361481     -0.60982222573470
  H          -0.33886600914233     -3.09975104913501     -1.62075678517254
  H           2.55948317577544     -3.90370780169622     -2.29049012060578
  H           0.14160743240662     -3.05356213654405     -3.97347245655531
  H           1.80876398775246     -3.51365591092547     -4.57669705900629
  Br          1.62927898658306      0.47747556165242      0.26066736486395
  Br          3.02091851927440     -0.91894115121113     -2.14031653247197
  Br         -0.09635190990407     -0.47026400367213     -2.15181551488791
  Cl          0.33152182407775     -3.59251515959409      2.99026652418686
  Cl          2.61793446168624     -1.97124297472138      2.34812993718661
  Cl          0.14342185382450     -0.71337566153499      3.16760303767209
  Cl          0.32539514292441     -6.03539241357542     -1.84917800063056
  Cl          1.92503081739726     -5.17697750553018      0.38395794241485
  Cl         -0.95578019327448     -4.81980227837709      0.40038681460828
