20
Coordinates from ORCA-job NEB_reactant E -45.035688881390
  C           2.51855023416891      1.04038677299832      0.39632987888695
  C           1.36326845619213      1.68124780224785      0.54446214625059
  Br          3.76883721447932      0.48612655863718      1.70536887614323
  H           2.82394796777246      0.73616165692377     -0.59046074175220
  C           0.50589643995621      1.95613546441452     -0.67619711113856
  C           3.57464955214511      3.45318781074319      3.40662049821886
  C           2.44606837332301      3.45695772575608      2.71603283481320
  C           1.38085995364884      2.41227255003825      2.85003839998696
  O           0.70816981997004      2.17997935798264      1.62376059442322
  C           4.64847539155648      4.47365727538563      3.30823915472155
  H           3.79692440544552      2.66491934152834      4.11250202156540
  H           2.22819722948582      4.23966624495091      2.00272060378996
  H           0.58794005581028      2.79065460524419      3.50565179055842
  H           1.77341924090104      1.48759630672641      3.28194490353009
  F           0.93822379207411      1.28473264156659     -1.78099962694870
  H           0.52145397417524      3.02575495131961     -0.91662300164141
  H          -0.52351214133156      1.64158966099735     -0.47421538416630
  Cl          4.88243114574476      5.23741093267640      4.91030873018209
  Cl          6.17756388731831      3.67028566974167      2.84409755988776
  Cl          4.31483500716396      5.75137667012108      2.13351787268890
