21
Coordinates from ORCA-job NEB E -43.424880361990
  C           0.27008771372163     -0.92632255873180     -0.20433816646249
  C           0.27193663344987     -0.66975890546086     -1.58368779395869
  O           1.43262353587566     -0.81720939630976      0.50148334372647
  H          -0.41062165509327     -1.70456939612472      0.14234366430774
  Br         -1.35155531547863     -1.35793877366435     -2.48655097371374
  C          -0.52787022495535      0.90940661325790      0.38219840251967
  C          -0.70625555930917      1.66966774448489     -0.77083786144890
  C           0.40993245805086      1.90440553640455     -1.57760437241909
  O           0.85727544127098      0.26271834870972     -2.15321050087503
  C          -1.68517055842826      0.63668775146054      1.28242192853672
  H           0.39592118691759      1.08048763539484      0.92973283153979
  H          -1.69156077158978      1.72394564382242     -1.21845200041414
  H           1.36372131882699      2.07920647459506     -1.09855089075999
  H           0.27253918146769      2.41067063939846     -2.52120620759880
  C           1.85368240730798     -2.00317701356855      1.15249337136250
  H           2.70943713172402     -1.72015851510728      1.76077607148167
  H           2.15423480980087     -2.76024325435605      0.42294201411982
  H           1.06418418844997     -2.40580248231564      1.79347104531738
  Br         -2.21638389596775      2.34760623154253      2.14453904314088
  Br         -3.24836870906286     -0.08086881717169      0.37007664718760
  Br         -1.21778931697903     -0.57875350626022      2.73196040441061
