21
Coordinates from ORCA-job NEB_reactant E -43.461450019540
  C           1.06458301622568      0.30333198239134      0.27876439078341
  C           1.16566877004451      1.26588377309344     -0.63779496341310
  O           1.17260981691158      0.56876137359792      1.60133777639864
  H           0.89855434070873     -0.72319507897152     -0.02177987135627
  Br          0.84589458517698      0.80011876778406     -2.47882734036072
  C          -0.32354163022099      3.50091122729675      2.04943616018672
  C          -0.54448227004028      3.03863855974740      0.82941734899784
  C           0.30334131269766      3.43111265186327     -0.34266963101800
  O           1.43882811457965      2.56480602723398     -0.41308417479819
  C          -1.00867455087763      3.05561685019986      3.27981344864798
  H           0.41822687148013      4.27132694774316      2.22265114347367
  H          -1.27764873437383      2.26440257190568      0.64606319325891
  H           0.72450183371814      4.43065061299166     -0.22427237367870
  H          -0.26822771726594      3.37409540804293     -1.27785348814722
  C           1.19337261345002     -0.56267351573289      2.44914903114515
  H           1.30951332482408     -0.17998985257372      3.46109732311332
  H           2.03448119074353     -1.21903640920504      2.21126894633730
  H           0.25755381020635     -1.12498441032558      2.37454025127787
  Br         -2.13172036090483      4.52489773685628      3.98531803255972
  Br         -2.13744003506460      1.49822461075944      3.05750828781739
  Br          0.33130569798108      2.61440016530159      4.64521650877428
