21
Coordinates from ORCA-job NEB_product E -43.476298169300
  C           0.47391726071790      1.04905499511341      1.28494705443249
  C           1.07059296717026      1.03853811804194     -0.11722571079230
  O           1.45759469486786      0.75301645066649      2.22858358320407
  H          -0.36296277801386      0.33217680047421      1.32748569337593
  Br         -0.15525730935260      0.28165821457683     -1.44948447106519
  C          -0.01479865861631      2.49217870271168      1.54908795370805
  C          -0.75482650156750      3.03557066845417      0.35702524339507
  C          -0.33387808739582      4.06691511858074     -0.35072429091104
  O           2.13650780643748      1.41209224561550     -0.44870775120063
  C          -0.88611055781774      2.57733385392334      2.79551646885729
  H           0.88546772933141      3.09272541370577      1.73569218679892
  H          -1.67668973038453      2.52754634161329      0.10492397428730
  H           0.58065543004690      4.58744633971030     -0.11766311542198
  H          -0.89078942432264      4.42742492760162     -1.19725576839264
  C           1.83169022296830     -0.60756552382613      2.28823886625136
  H           2.52085795910109     -0.68546102992941      3.12530023497162
  H           2.33248470093132     -0.92537171765224      1.36877010317529
  H           0.95990015807372     -1.24614724960203      2.46699697972486
  Br         -1.45751102524677      4.43289700603806      3.03906798482817
  Br         -2.49342641695162      1.48381807605051      2.64071475911577
  Br          0.04238156002316      2.04435224813195      4.41561002165757
