22
Coordinates from ORCA-job NEB_reactant E -43.473884934140
  C           1.63782329476047      0.01633893256932     -0.00975930680355
  C           1.54902557246070      1.33876120311289      0.16723974349610
  N           1.51563779412039     -0.91726706615789      0.99734815397649
  H           1.87129385687552     -0.36832874196812     -0.99041056836124
  C           1.75164216420547      2.33562481653303     -0.94342587445654
  C           4.45483631158858      3.14012343150808      1.55274213231403
  C           3.16495374395543      3.24421384735434      1.83217166500218
  C           2.32456084669911      2.08816357241126      2.27767490819476
  O           1.22045686621786      1.88459261215436      1.40931280985788
  C           5.32914721775767      4.21954740426103      1.04855800203037
  H           4.97189638898998      2.19451664882972      1.66875387506284
  H           2.62812335781814      4.17479796458691      1.70681285199956
  H           1.87937015279395      2.31590032585535      3.25165095083025
  H           2.93022797286664      1.17651231279313      2.35512015823649
  H           1.04300615431695     -0.56977251910613      1.82041132331855
  H           1.19356735921423     -1.82655783769706      0.70613345515997
  F           1.45829169969482      1.78002810882989     -2.16253407806772
  H           2.79119225383293      2.68767561164296     -1.01032719719160
  H           1.08207171336880      3.19162109176050     -0.80347394881723
  Br          6.92117884704317      4.38692730205285      2.19781091452155
  Br          5.94795894121096      3.73332449139751     -0.77364636095063
  Br          4.49103749020824      5.96475648727604      0.93773639064748
