22
Coordinates from ORCA-job NEB_product E -43.473689455720
  C           2.95960998169674      1.47659042079034      0.32460795024458
  C           1.71746388741767      2.24188131493542     -0.15572073134321
  N           2.52082617689529      0.21650912878432      0.90406059536617
  H           3.60810704013917      1.23759047611732     -0.52703275232928
  C           1.55883442381994      2.23943406685137     -1.66888852697365
  C           3.79035768764454      2.20657425407730      1.40797031255346
  C           2.93215210320269      2.76131647823090      2.51137288425491
  C           2.81099962993421      2.17469406497360      3.68763542218414
  O           0.88855384332366      2.67480784390581      0.59677796797146
  C           4.67796922195756      3.29773375016622      0.83721491441238
  H           4.45046661369713      1.43672145346414      1.83158629661940
  H           2.39357125105252      3.67218237010377      2.29105234725643
  H           2.18110539170326      2.58772579129921      4.45528468943696
  H           3.33137151532200      1.26156518693629      3.92789791421954
  H           1.90588106346542      0.39304455290035      1.69301588109936
  H           2.01788334387191     -0.34567207832163      0.22753477732655
  F           0.33351495751741      2.69976964877120     -2.04393995334658
  H           1.66378530905673      1.22052565304295     -2.06193985355080
  H           2.31255632180458      2.88910313162519     -2.13003081449411
  Br          5.70976819307437      4.12301494747433      2.27709115669525
  Br          5.96208392354583      2.57995153924137     -0.45527874476385
  Br          3.66633811985737      4.70613600463022     -0.06007173283913
