23
Coordinates from ORCA-job NEB E -48.822860820420
  C           0.48045201982532      0.84274424586266      0.16020890991807
  C          -0.88394588764998      1.11539218429989      0.33605035508055
  C           1.13778148343927      1.26552096943037     -1.14117571389506
  H           1.13283224651706      1.10664684156198      0.98809950268678
  C          -1.42501340067994      1.40219542001663      1.71344630744254
  C           0.48928245892114     -1.10597143516862      0.12962642126451
  C          -0.47712984761347     -1.36044520800672     -0.83983866150483
  C          -1.81723119351649     -0.86975432624373     -0.65397244742934
  O          -1.73850579793188      0.69100584083873     -0.56488154307601
  C           1.89967328843223     -1.57747128511639     -0.09388564605156
  H           0.17750505870530     -1.18242402017534      1.16668362065058
  H          -0.16001747987268     -1.59651245495760     -1.84467503042808
  H          -2.28342957685380     -1.13830048336286      0.29315216387286
  H          -2.48605556308144     -1.02700769958303     -1.49344964838539
  F           2.47924357493694      1.08318368217656     -1.07780340910100
  F           0.72350725568682      0.60612147320328     -2.23903040254346
  H           0.96818732589307      2.34088332016686     -1.32227956905130
  Cl         -1.48842967704702     -0.07641107812523      2.76405327464849
  Cl         -0.41354623228369      2.58895207518421      2.55663033011043
  Cl         -3.07493982558411      2.02919281755431      1.59018855545678
  H           2.60359277832781     -1.02867632146883      0.52583296411819
  H           2.19413600369029     -1.47916761050547     -1.13493845778549
  H           1.96205098773923     -2.62969694758166      0.18195812400173
