23
Coordinates from ORCA-job NEB_product E -48.857556654100
  C           2.12266140027775     -2.13979522571427      0.53234991887618
  C           0.81133244546005     -2.25724182993398      1.27387550032751
  C           1.93522190519508     -1.15758581251277     -0.64065584073348
  H           2.90264904025101     -1.72180227569837      1.17320165489352
  C           0.79550830244621     -1.62371714344588      2.68528614171203
  C           2.54564683835544     -3.54106230836322      0.01680524746847
  C           3.80671119575526     -3.43728549022946     -0.78995185900786
  C           3.89663874660675     -3.77461141412826     -2.06168246089720
  O          -0.17668212212082     -2.75670207402407      0.82837001006646
  C           2.76003457908860     -4.49577920602641      1.19113296254559
  H           1.73583729769804     -3.92005760717623     -0.61342136907970
  H           4.67036168234490     -3.07218724299771     -0.25030934669763
  H           3.04329873788501     -4.13019490913370     -2.61501529345422
  H           4.82320235795089     -3.70062998538222     -2.60376290296112
  F           3.13792618445499     -0.72733236510723     -1.08380166461910
  F           1.32179118767177     -1.73340379583145     -1.69081923072867
  H           1.35319093895848     -0.26578733275421     -0.35801320709049
  Cl          2.12336394624828     -2.23004608714319      3.68567219954547
  Cl          1.00133480376133      0.13447691279006      2.44421116481008
  Cl         -0.74396431797055     -1.93368609769483      3.49169660514526
  H           1.84293556648586     -4.62489685593057      1.76115846383006
  H           3.53596057207358     -4.12278945767634      1.85565623186793
  H           3.06933871112208     -5.46708239588570      0.81351707418092
