18
Coordinates from ORCA-job NEB_reactant E -30.057689720250
  C           1.97084826663437      0.98048686117144      0.28061681938977
  C           0.98647093675109      1.02628190815867      1.17171633320411
  Cl          3.67025288908221      0.83751354651349      0.57046417072742
  H           1.74117086098195      1.04357304656803     -0.76917487471179
  H          -0.02140653807717      1.11880843818517      0.78260847189089
  C           2.48866154427698      3.30544882548966      2.89269202827646
  C           2.96352044221699      2.12242628515801      3.25921026100428
  C           2.12554643932717      0.87512411450266      3.27353823691614
  O           0.93272656751651      0.96612586117131      2.51241799401117
  O           3.13893328062610      4.48903442143216      2.82246961052939
  H           1.45886358636746      3.43376792137463      2.58703375653474
  H           3.98559358164404      1.97792899672151      3.56975124976488
  H           1.77437498410970      0.66736151587524      4.29199804448919
  H           2.72510773784486      0.01948637067538      2.94173586018605
  C           4.50737343292593      4.49741752758789      3.15424466411985
  H           4.84653760741924      5.52130897302677      3.00811167515356
  H           5.07534182731514      3.82620783288604      2.50250791153597
  H           4.66498255303744      4.20489755350195      4.19725778697794
