18
Coordinates from ORCA-job NEB_product E -30.049547562730
  C           1.94978285443834      1.87587305987989      1.12752337189137
  C           0.64239201008132      2.59818442081953      0.88245486045559
  Cl          1.45307325692743      0.16797007386834      1.29987540906208
  H           2.60620860437885      1.94215433482533      0.25748381380922
  H           0.21318000755209      2.38207371326836     -0.11282844278302
  C           2.68241744864721      2.37402380082249      2.37692283956601
  C           3.73476101206548      1.39686878218925      2.82542597497529
  C           3.71941217047162      0.78599750276075      3.99409564603161
  O           0.08054526747983      3.28478326276032      1.68141043994360
  O           3.25255019995077      3.61214796278045      1.98439172172928
  H           1.94620638328557      2.53495900424638      3.18006064086333
  H           4.53532286512718      1.24294831813717      2.11515249595981
  H           2.92395186318363      0.94303388933606      4.70453628400433
  H           4.49060124165200      0.09345623990145      4.28440543173053
  C           3.61427326101242      4.43186486144369      3.06940025820342
  H           4.03392626969080      5.33761782718325      2.63728598103794
  H           4.36242661679306      3.94689593426566      3.70648868891061
  H           2.73836866726240      4.68724701151165      3.67651458460901
