18
Coordinates from ORCA-job NEB_reactant E -29.590144176870
  C           1.79736798339310      0.20002301203588     -0.09395319425333
  C           1.44606187191604      1.27829402812396     -0.79331015109858
  O           2.22240657935594      0.18493272003472      1.22579992623829
  H           1.74663528276229     -0.76238168354978     -0.58169564267795
  C           0.97209135688805      1.15613592879893     -2.21304012090429
  C           4.24210409149711      4.04786720706308      0.99226506781533
  C           3.50586849054097      2.98581112949062      0.72973498373657
  C           2.00824918384799      2.98108357976439      0.81615638789941
  O           1.40967066336025      2.59169085873737     -0.40181176427958
  Br          6.13223580050960      4.02783233072970      0.89595316751763
  H           3.84626599441522      5.00289069401683      1.29852154191537
  H           3.95924682777387      2.05475005958778      0.42252036148061
  H           1.63043521245413      3.98925901031424      1.00782158774319
  H           1.69916236264954      2.31620622656381      1.63037147521542
  H           2.58333568213267     -0.68195020908329      1.42936048754237
  H           1.64421104447616      1.70259839321332     -2.87234720222505
  H          -0.01614872984786      1.60198840989830     -2.30462952762800
  H           0.92890030187491      0.11806830426012     -2.52391738403740
