18
Coordinates from ORCA-job NEB_product E -29.605503789820
  C           3.13379526765172      1.60832460169405     -0.92703448301463
  C           1.74682376682078      2.03931187180765     -1.43026197963670
  O           3.14674633226530      0.24434932137862     -0.62589881543839
  H           3.85033249422164      1.84047196132368     -1.73469265372790
  C           0.73610282872602      0.94518410669882     -1.51898925011532
  C           3.46479045480260      2.49440115906377      0.28433968702782
  C           2.53815819236438      2.26077678988344      1.42227347375002
  C           1.87898427482400      3.22919595883153      2.03101224630340
  O           1.53882417736782      3.18966487264747     -1.71795345291989
  Br          5.31970699395157      2.06541090884753      0.86791835932287
  H           3.48667753529702      3.54224944636240     -0.01659681925059
  H           2.43317569721878      1.22731604456475      1.72552226385942
  H           1.98249544169865      4.26006615463993      1.73478853508178
  H           1.20403713884227      3.02754190933122      2.84432032875751
  H           4.01947476242709      0.01345111140095     -0.27715052708145
  H           1.11631812672765      0.15892665037039     -2.16733560053069
  H          -0.20658295806432      1.33135208505900     -1.89494827758916
  H           0.60293947285702      0.50670504609482     -0.53221303479812
