21
Coordinates from ORCA-job NEB E -45.830135122390
  C           0.70706756012140     -0.21319930621107      0.46449447297041
  C          -0.50011964405554     -2.94724018322753     -1.34986958849809
  C           1.28051602464091      0.03214052701731      1.76393346243410
  H           0.76532752147920     -1.23528501948056      0.12530664746542
  C          -0.00442086490178     -3.85359489579784     -0.53559754767517
  C           0.09392265310847      0.77548152994634     -0.45935012801316
  C          -1.31741497974881      1.07180365040321      0.01932232297687
  C          -2.39459859568925      0.53849442703338     -0.52118992113277
  O          -0.93439184387251     -2.14113718590823     -2.07433846956094
  C           0.87266216650464      2.08874473923307     -0.65539677243284
  H           0.03018168273791      0.30509259790659     -1.44598016796481
  H          -1.37861121938927      1.75359059593969      0.85318111858863
  H          -2.34574867698679     -0.15274319057313     -1.34671548016825
  H          -3.37961671972830      0.77950928136389     -0.15924183700952
  Cl          0.39271668810703      1.15718614625376      2.80839712883373
  Cl          1.50685084136121     -1.49361635620422      2.64961582618322
  Cl          2.98825735345173      0.75700144780887      1.56956955226194
  N           0.44309440547956     -4.66300753895559      0.19195823154039
  F           0.82036997753586      2.89989002176792      0.44047782711275
  H           0.42518320345974      2.65383041431922     -1.48036865090813
  H           1.92877246638455      1.88705829736491     -0.85820802700376
