21
Coordinates from ORCA-job NEB_product E -45.964946168060
  C           1.39271218387379      1.38999828580490     -1.56445458380830
  C           2.08654098452117      0.40198687474497     -2.50532091882611
  C           2.16915030010292      1.56846571359160     -0.25942613369908
  H           0.43449533415503      0.92182256291978     -1.29578726993967
  C           2.89886852069260     -0.64641990405436     -1.91091807414877
  C           1.02939928247573      2.66906325859865     -2.36687712079736
  C          -0.04098089592880      3.48965135627918     -1.69205605372441
  C          -1.28704472842883      3.08236553972739     -1.54180486870523
  O           1.95952935407045      0.44234229259323     -3.70091058662534
  C           2.22842514018355      3.53279485700954     -2.76203584461034
  H           0.62270341782967      2.28338551049140     -3.31094054989657
  H           0.26498777584475      4.46288363734307     -1.33924550498660
  H          -1.62465089513260      2.11927718891128     -1.89097521730614
  H          -2.02664023597925      3.69762573656668     -1.06180443701607
  Cl          1.57230148664797      2.91689290715553      0.71347582972570
  Cl          1.96725135863753      0.08155019693105      0.73322983408512
  Cl          3.91226448574082      1.78531232247396     -0.56543354335540
  N           3.55808323898992     -1.53000923056406     -1.60300285387553
  F           2.70439918165458      4.27607879791609     -1.71464305322109
  H           1.92272161946313      4.24958302123631     -3.53146734610805
  H           3.06178309058588      2.92824907432381     -3.13280170316076
