21
Coordinates from ORCA-job NEB_reactant E -45.966090975010
  C           2.05424180384795      0.24245374556099     -0.20228690977486
  C           1.55453403550874      0.07490477566134     -1.44665970734760
  C           1.65851051101030      1.13949795095111      0.90920750839518
  H           2.87147410062529     -0.41833055197858      0.05153481622263
  C           2.17659848836869     -0.99109216384627     -2.18246809914390
  C           0.69017454601250      4.01551865273833     -3.21761885257317
  C           1.05576872937402      2.96299331912474     -2.50687046095429
  C           0.10009536265485      1.95143363330207     -1.95041254707756
  O           0.57704550692879      0.62925902453457     -2.16712204712974
  C           1.63721827362904      5.04098382108920     -3.75089187209072
  H          -0.34732405664404      4.21049473657646     -3.44990510491009
  H           2.10112460515705      2.78876887058488     -2.29263389117744
  H          -0.85342323137106      1.98553726768539     -2.48325931071581
  H          -0.08326736220915      2.14050390760798     -0.88963983808542
  Cl          2.02270739957328      2.87381644329755      0.59270735219558
  Cl         -0.08893861872481      0.99185081166770      1.30234177161946
  Cl          2.55667185510048      0.68600200868882      2.37953373134651
  N           2.67273711614368     -1.84051492143157     -2.76533564100916
  F           2.93653780303027      4.76938996360683     -3.41239438742068
  H           1.40436556289949      6.03460096237657     -3.34723469354795
  H           1.59504756908464      5.07802774220186     -4.84689181682097
