19
Coordinates from ORCA-job NEB_reactant E -33.658765781250
  C           1.10561943740026      0.10514679494618     -0.26910365981555
  C           0.94870842023710     -1.20572386471943     -0.09488310837969
  O           1.60383022516497      0.62371822602902     -1.42155549743057
  H           0.83829322728024      0.79637357430120      0.52034287142250
  Br          0.12791894120490     -1.76386489882349      1.56599737341869
  C          -0.76069526447385     -2.36670479510067     -3.50379936584273
  C          -0.72908285800046     -2.37708365241038     -2.17770707592550
  C           0.33205487327939     -3.07716708676410     -1.39344101644494
  O           1.34459085785679     -2.17879550388235     -0.91703341536762
  O          -1.67279191126358     -1.73960485624643     -4.27112678066231
  H          -0.03770669768714     -2.89976569735438     -4.10443311745036
  H          -1.46280256871131     -1.82119340396612     -1.60676330549761
  H           0.87757430898891     -3.78997854676870     -2.01249050784271
  H          -0.10727261156431     -3.59891014857084     -0.53169716774933
  C           1.95012898336564      1.98812956994139     -1.36442572330004
  H           2.24919968080225      2.26649290203133     -2.37289713793971
  H           2.78577776638035      2.15755633897279     -0.67770909454114
  H           1.09897168000155      2.60285245253489     -1.05286758389900
  H          -2.30321649026172     -1.26177740414990     -3.71610668675240
