19
Coordinates from ORCA-job NEB_product E -33.661216156260
  C           0.41378263117966     -0.23772896185024     -1.37896607527114
  C           1.07072602787480     -0.99519846646183     -0.24648254962261
  O           1.37939758271725      0.41616463582259     -2.14787609150901
  H          -0.33679860959492      0.46400191689831     -0.98470174915061
  Br         -0.06610287429476     -1.06953850146711      1.35672215845467
  C          -0.31331152403847     -1.24629690509825     -2.30936132169304
  C          -0.84683982134236     -2.43334731540288     -1.55048859901368
  C          -0.27717778323069     -3.62355372569553     -1.55273818943138
  O           2.13186553165137     -1.50383312146823     -0.21634384911826
  O          -1.34630811115763     -0.51704555462060     -2.92827591948926
  H           0.43853721433982     -1.56990442690638     -3.04470004009745
  H          -1.76116444285526     -2.24398631309665     -1.00408088875490
  H           0.63285416480696     -3.81582774227000     -2.09776509098733
  H          -0.68734898059846     -4.44772832391778     -0.99543908764218
  C           1.89356217082392      1.58950971158836     -1.55651821066846
  H           2.57076877766795      2.02168608796390     -2.28929968912936
  H           2.44714083095945      1.36989020505804     -0.63704990300311
  H           1.09054965128047      2.30064549532600     -1.33275339995229
  H          -1.78093243618908     -1.07830869440170     -3.57948150392061
