22
Coordinates from ORCA-job NEB E -35.541140946920
  C           0.36058922853654     -0.05768321078011     -1.10858653507817
  C          -0.69734191101063      0.41177232864972     -0.29632616443427
  N           0.01549807699332     -1.05737308772618     -2.08825791062397
  H           0.99811565793848      0.69693333549949     -1.56093293547359
  C          -0.84762687079405      1.88004800017083     -0.00785526518742
  C           1.34757196217097     -1.11894549833535      0.09124468153126
  C           0.40226475347745     -2.05445586617183      0.50257593695515
  C          -0.79974310085730     -1.55408287663388      1.14498563029347
  O          -1.45423006662437     -0.41651750916462      0.37325233348970
  H           2.19872453251847     -1.48483461363060     -0.46945773481767
  H           1.60964660671500     -0.31774809408479      0.76954292596722
  H           0.36545708092635     -3.02804459159918      0.04402297101059
  H          -0.62114394918466     -1.07159796632054      2.10902731464665
  H          -1.58872089133944     -2.29641522518466      1.23066631591023
  O           0.45013537812648     -0.87841844297959     -3.21213412185488
  O          -0.71028610178526     -1.96701818090023     -1.74841720650893
  C           0.19967539257806      2.36188705749693      1.00251739462093
  H          -1.84576795030440      2.04459196385364      0.39936319273428
  H          -0.74814158093132      2.44833965374300     -0.93331487343850
  H           0.11682212776862      1.80675619884674      1.93383242127500
  H           0.04386104389841      3.41560155615270      1.21748753171117
  H           1.20464058118329      2.23720506909850      0.60676409727175
