22
Coordinates from ORCA-job NEB_product E -35.579816710070
  C           2.75535926411540     -0.55210163532463      1.31981962966274
  C           1.42659721951246      0.08560653112272      1.79368068799392
  N           2.44867633471967     -1.12301175271091     -0.01977982041208
  H           3.48600574203465      0.24136641151997      1.13897238324620
  C           1.33268538966691      1.56337567843715      1.52981554779572
  C           3.31307588236149     -1.59943759314358      2.28704689938573
  C           2.29127265741124     -2.54411549828983      2.84550829895577
  C           2.08404541348823     -2.70886046805866      4.13764643492190
  O           0.56238131127292     -0.57054860459003      2.29888353965690
  H           4.06679314527142     -2.18269863662046      1.74784043973612
  H           3.80776924557612     -1.07210882704286      3.10570007793339
  H           1.74462251659716     -3.12348098232217      2.11696653142451
  H           2.62265028470213     -2.14096851012473      4.87972578456678
  H           1.36214166673427     -3.41387362265822      4.50933057193601
  O           2.25030779802643     -0.31014877133937     -0.89443057671278
  O           2.40863457209572     -2.31618570801833     -0.14741807534075
  C           2.20903544266412      2.35204274783730      2.50587080918582
  H           0.29194994216131      1.86626655601759      1.65139843236605
  H           1.64523535700847      1.75729674478910      0.50117329911470
  H           1.91013956422087      2.14506986834656      3.53061050537914
  H           2.09238786343185      3.41625429272537      2.32076643997344
  H           3.26133338692713      2.10106177944801      2.39487215923078
