22
Coordinates from ORCA-job NEB_reactant E -35.570212007190
  C           1.56748162762423      0.30862610664954      0.03385708506679
  C           1.61098940449838      0.04141545384591      1.36259000516378
  N           1.97969111026985     -0.56865313843262     -0.98415743751926
  H           1.20053249773614      1.25305846298941     -0.33096838345734
  C           1.16131159482620      1.10924402733983      2.32400377940057
  C           3.58184626665639     -3.17185307371840      4.24887739197193
  C           2.81813860450571     -2.80859420533914      3.23764676442789
  C           2.11129209464551     -1.48829502870309      3.14960315905837
  O           2.08693260910259     -1.12078263109577      1.77968621645734
  H           4.05707505956906     -4.13603986993786      4.27765552642798
  H           3.75672927035554     -2.52727460227518      5.09539737702838
  H           2.65276436176034     -3.44992283189740      2.38496860680557
  H           2.62334641390372     -0.73487122025322      3.75865939669240
  H           1.07983015092989     -1.60134087122538      3.51860803059079
  O           1.89004564323820     -0.14586335241822     -2.12687585902612
  O           2.39024626191411     -1.67786703735844     -0.70027706984792
  C           2.33637056423420      2.01953432366193      2.69730697384422
  H           0.73763570156644      0.66241202884483      3.22415690951376
  H           0.38585449648545      1.70836919389825      1.84724666362359
  H           3.14592327045807      1.45535919382431      3.15449393375805
  H           2.00700579853079      2.78062377386188      3.39980938502691
  H           2.72535719718918      2.51011529773881      1.80911154499230
