22
Coordinates from ORCA-job NEB_reactant E -43.478080798110
  C           1.33509189943995     -0.61092189616151      0.07123495867037
  C           1.98358590835841     -1.40780634209592      0.94529546210038
  C           1.94266675318844      0.15640003492392     -1.01973450793491
  H           0.26668623548424     -0.49173034884875      0.16379098018263
  C           3.47501668667956     -1.65747268430071      0.90744158084337
  C          -0.64272995299094     -2.34084176177420      4.52903967231794
  C          -0.33348900551296     -2.84204490738774      3.33296702331070
  C          -0.00219548275010     -1.98836213020123      2.15695121999647
  O           1.40809254197226     -2.08489589606947      1.93076893314715
  N          -1.02278392725763     -3.08243792755278      5.61823414197695
  H          -0.69823672521119     -1.27035522918071      4.67771271694683
  H          -0.26555672647190     -3.90810213334396      3.18223108812775
  H          -0.26743912272233     -0.94205892142907      2.35124702953977
  H          -0.52753760309425     -2.33573653228806      1.25696946163827
  Br          0.57198284822265      1.05543377809399     -2.07129522432191
  Br          3.18349470234465      1.59092570951497     -0.37468824206754
  Br          2.99225656733845     -0.94644971456845     -2.29139373617733
  F           3.89169482810186     -2.25451473182465      2.05855886114296
  H           4.03963974379750     -0.72325269999308      0.80989993601802
  H           3.73271404177033     -2.33575433996118      0.08391346119401
  H          -0.80531880953744     -4.06599254784661      5.57721001150966
  H          -0.89213540114958     -2.66322877770480      6.52344517183846
