22
Coordinates from ORCA-job NEB_product E -43.467385908470
  C           1.31055005899393     -0.94021714861935      1.50716294790862
  C           2.66987665782793     -0.71408033175615      2.18987415417020
  C           1.38098221231986     -1.27732959658492      0.03586905645492
  H           0.79361422648647      0.02803985762478      1.57619765556529
  C           3.70347668853747     -1.80514016272017      2.02761665518366
  C           0.49867669781455     -1.91085032240201      2.44637352108107
  C          -0.95384371203620     -1.95753112886550      2.05049434786491
  C          -1.86937091190434     -1.13317192963302      2.52344711260933
  O           2.82771359806304      0.24881119683407      2.88669073970375
  N           1.11411007934127     -3.22294917940327      2.51541440671873
  H           0.57418144821346     -1.42909094734363      3.42896997376753
  H          -1.22364824821062     -2.74345879714179      1.35668410821068
  H          -1.62340900011429     -0.35027348385003      3.22216734036231
  H          -2.89971695391626     -1.20323428380981      2.22316763516829
  Br         -0.33421270826276     -0.94576694532258     -0.85385702049239
  Br          2.67624025222426     -0.06818926686811     -0.83959085894791
  Br          1.89928601983385     -3.09091833086908     -0.41441443785864
  F           4.72272063811679     -1.62947197707276      2.91680331195953
  H           4.15096061484427     -1.79345702643458      1.02689845568386
  H           3.23697010383247     -2.78032957535049      2.22615843864940
  H           0.60994702661037     -3.90601573084584      1.96206197586587
  H           1.16069521138450     -3.56287488956574      3.46611048037102
