17
Coordinates from ORCA-job NEB_product E -41.420607736280
  C           2.65071148739229     -1.56080114006513     -1.26884758135897
  C           1.40043031411699     -2.36356258115388     -0.98213339832825
  Cl          2.15205269171576      0.11071459730359     -0.81393247244013
  H           3.46416635360283     -1.84671411538032     -0.59893392833617
  C           1.36772449029932     -3.00368717004371      0.41689936005624
  C           3.11052669489937     -1.54762260623047     -2.71632337992717
  C           2.13828011342034     -0.98504835697452     -3.68929491994827
  C           2.46396699449322     -0.03497742232662     -4.54774534496565
  O           0.49438699947603     -2.52113294037063     -1.74223587617667
  I           3.58486431124529     -3.61358870119460     -3.25135661369369
  H           4.06359942369383     -1.01941453103128     -2.78065564120174
  H           1.14422290908489     -1.40510038110002     -3.66687408618873
  H           1.74693962281010      0.36101249240855     -5.24476382743742
  H           3.45529610244750      0.38781541848217     -4.58558889969905
  Cl          2.48733438403213     -4.39194320165532      0.28934645689337
  Cl          1.92765567347709     -1.91699254959308      1.69476241893375
  Cl         -0.25595856620700     -3.58085681107471      0.79157773381857
