20
Coordinates from ORCA-job NEB E -53.934424326750
  C           1.34852302517513      0.86124426903347     -0.40921545609434
  C           1.02168381881870     -0.41441710756225     -0.67447104866876
  C           0.76466441267152      1.95370296948470      0.40664643012504
  H           2.25996489675729      1.17979847917590     -0.89873399542565
  C           2.05085121155528     -1.07278069279590     -1.62174922694765
  C          -2.88138761271526      0.08826436820194      0.95007810608376
  C          -1.63763664983007     -0.33022423154959      1.13461174059742
  C          -1.07767718345395     -1.46869016206428      0.35880884407665
  O           0.12095246848736     -1.34991766128582     -0.41697525083839
  Cl         -3.59027895401981      1.31946588281001      1.89993238921095
  H          -3.53698637607683     -0.31134624569733      0.19036225378296
  H          -1.02429622461418      0.08564641327988      1.91667206503387
  H          -1.82079714394695     -1.82698933510225     -0.36279396612104
  H          -0.85025895953793     -2.28783760354262      1.05543372423972
  Cl         -0.90605409555535      2.35606915477695     -0.05981520644886
  Cl          0.84363858063271      1.60257114723469      2.16166849456511
  Cl          1.73585789662445      3.43294655723046      0.15549283253849
  F           2.14821974757178     -0.40816034943942     -2.78149241658526
  F           3.27933352537775     -1.07745363766014     -1.08530550848417
  F           1.75168361607836     -2.33189221452840     -1.91915480463986
