20
Coordinates from ORCA-job NEB_reactant E -53.945352151460
  C           1.46304004018581      0.13240658993805     -0.01424759265047
  C           1.45501148100269     -1.12290720691361      0.45667081394983
  C           2.42533399583082      0.81486344307687     -0.91313283583858
  H           0.64816142827770      0.75161004214828      0.33498864312147
  C           2.50461647030089     -2.18309638373951      0.13836186356680
  C          -0.85779662349025     -3.59047464663485      3.59108278018037
  C           0.13932162665367     -3.35006243590380      2.75507278601964
  C          -0.07964649292872     -2.77266249629937      1.38905346293516
  O           0.47082691912455     -1.44756296520235      1.31398394638473
  Cl         -0.62168662832758     -4.25290522393188      5.15023884106223
  H          -1.89360017905882     -3.40373405593351      3.34900696058169
  H           1.16275578644063     -3.54261518180204      3.03845975771863
  H          -1.15078091933309     -2.65309969052041      1.19664440010882
  H           0.34086297469197     -3.42962272866189      0.62365693047752
  Cl          2.80504366257602     -0.15181896030939     -2.36265818344651
  Cl          1.70324848151158      2.34223076291202     -1.46976290377724
  Cl          3.94661662323262      1.21902318963233     -0.05979494269032
  F           3.70702451366536     -1.68170110548953     -0.12567718734730
  F           2.68059587510727     -3.02304130620738      1.16943412230135
  F           2.15375096453687     -2.94492964015802     -0.91378166265782
