20
Coordinates from ORCA-job NEB_product E -53.942661840320
  C           1.24627482460546     -0.73624936806840      1.39111423097596
  C           2.59074814591999     -1.36373012176355      1.74429497802712
  C           1.19604320576654     -0.04471071671681      0.02103362631544
  H           1.14577747268187      0.06764497500729      2.13391666313951
  C           3.30543016902213     -2.37642081863585      0.79454820646627
  C           0.05504358214117     -1.69646903721956      1.63032145481347
  C           0.20647004675821     -3.09084059224997      1.12312812584993
  C          -0.63875293174935     -3.64995186821229      0.27658969083587
  O           3.13707457595819     -1.12773462712812      2.77949273925944
  Cl         -0.19258637709813     -1.80184171779113      3.41568733774276
  H          -0.84569540730283     -1.22747288591311      1.22555507422375
  H           1.01484417115221     -3.66261336944953      1.55493252583094
  H          -1.46822096327990     -3.10607339851352     -0.14348851291291
  H          -0.52121968727113     -4.67102427272217     -0.03904365032228
  Cl          0.59765833429482     -1.04467384589567     -1.31013162812258
  Cl          0.10622708020182      1.36355232816584      0.14481710380570
  Cl          2.83738637101374      0.54881374375892     -0.37725540572991
  F           4.52756692975872     -1.93052148847596      0.49586190578352
  F           3.45488636551539     -3.54415660878348      1.43378149085073
  F           2.69024409191109     -2.64512630939290     -0.35575595683274
