20
Coordinates from ORCA-job NEB_reactant E -46.231475249520
  C           1.81695414707247      0.16954627219364     -0.00610114221819
  C           1.49282595150842      1.45150547001415      0.14614871002699
  C           2.14044453262605     -0.87472785594613      1.01653743347543
  H           1.83919972364110     -0.21658011295901     -1.01494799908461
  C           1.15524705432274      2.29171238923921     -1.07713756631181
  C           4.10359807857953      2.93580781943338      3.19387144458419
  C           3.43987196468630      2.10236807554336      2.41529155342017
  C           1.95106267150089      1.94402185790930      2.47178205188006
  O           1.33930252707776      2.25311508570592      1.22982333074349
  F           5.43198306875631      3.05247780335893      3.12571060914539
  H           3.67654776216538      3.57096126102382      3.95693529337116
  H           3.97222270254962      1.52878508568891      1.67029906579850
  H           1.51881004239661      2.66767155315510      3.16652191688273
  H           1.67791475029789      0.93361245168516      2.79610405357416
  F           2.57005629729128     -2.00800305690120      0.37721236045184
  H           1.25155702910666     -1.16847677318812      1.59041552443658
  H           2.94818328522866     -0.58690980032263      1.69942701249639
  F          -0.08199172765223      2.79648071122298     -1.00568194845644
  F           1.99160951824747      3.33118609921862     -1.19906851246438
  F           1.22480062059707      1.60764566392461     -2.22414319175166
