16
Coordinates from ORCA-job NEB_reactant E -30.672625340370
  C           0.77924331735832      0.42916522791480     -0.62826101932394
  C           1.60160297996431      0.81269390653336      0.34591360565939
  O          -0.55032657767511      0.66048324099511     -0.63312881685342
  H           1.12485398417289     -0.09719993206210     -1.50186761152150
  I           3.68156368699727      0.38686960264649      0.18196148760782
  C           3.12629810009575      3.10345620580709      2.69320297529593
  C           2.66118912187971      1.99532085732867      3.26476542270696
  C           1.55663262244727      1.15903083977189      2.69811590479796
  O           1.16177480601927      1.56031290361492      1.39524908729836
  C           4.15365334132010      3.87644906883147      3.26671977294159
  H           2.73172806439547      3.46635273854621      1.75253869563102
  H           3.06000174983447      1.64188317573673      4.20528300725911
  H           0.66858711679910      1.26783461483399      3.33538693978901
  H           1.84715923099633      0.10084904429582      2.70970269728104
  H          -0.79281220483204      1.16314656632517      0.15707463452762
  N           4.98205066022690      4.51945193888037      3.72954321690305
