26
Coordinates from ORCA-job NEB E -42.092556861940
  C           0.14007836165054      0.44543328270135     -0.62124122083605
  C           0.51151056388939      1.63463298317228      0.18899533707252
  C           0.87235576890708      0.31982748904523     -1.94248812198701
  H          -0.93149158757154      0.52332554875663     -0.85982887781804
  C           1.80564092969894      2.36018262080263      0.19481723273989
  C           0.28886405479307     -0.77028642470972      0.37152445459192
  C          -0.30367290872597     -0.26041783071946      1.62907022861747
  C          -1.05744605541107      1.02419612486507      1.71716999074324
  O          -0.42399567156500      2.08620198158309      1.05595873742001
  C          -0.27667323266506     -2.15245783128888     -0.01558130322705
  H           1.37727878712865     -0.90003581556869      0.47296541549208
  H          -0.70657828817125     -1.02208827908551      2.28444028772049
  H          -1.12884515623045      1.35271427487414      2.75829644750958
  H          -2.09527246529346      0.89171562314377      1.35608179456390
  Br          0.73177673922874      1.99880710707227     -2.96983485398072
  Br          2.75055048952101     -0.14202750034130     -1.76143655072873
  Br          0.06671819832558     -1.02226261780236     -3.12879023050791
  H           2.60029042163339      1.70783455111470      0.57134542144649
  H           1.71002664184910      3.20721916380693      0.86969120131898
  H           2.12117658439755      2.73215574532396     -0.77903556582016
  C          -1.77610042998918     -2.15304088244311     -0.28617306849184
  H          -0.06933145317519     -2.81593809740183      0.82743174314451
  H           0.25845848760882     -2.55978485987712     -0.87408403497280
  H          -2.31659865435954     -1.72313223043492      0.55452202188577
  H          -2.12510999306139     -3.17222399180890     -0.43039643955686
  H          -2.02361013241276     -1.59055013478026     -1.18342004633967
