26
Coordinates from ORCA-job NEB_product E -42.160033618410
  C           1.56354300124014     -1.69248722554538      1.23063316290017
  C           2.94298656486815     -1.89058410840012      1.89391844885393
  C           1.55340537523346     -1.22733429369448     -0.21325486392270
  H           1.11366104081758     -0.85748853561420      1.78925917348886
  C           4.09326031894637     -2.44982287374412      1.10743332072138
  C           0.70523546151416     -2.94774871301973      1.61038975527431
  C          -0.62957240227215     -2.96398587393636      0.92375185379748
  C          -1.76280310450592     -2.63793538027068      1.51726735028195
  O           3.04185242663020     -1.61198573930473      3.06001291857122
  C           1.41104025337389     -4.29847838234122      1.41725656522731
  H           0.53378530773953     -2.83169413658644      2.68732092000990
  H          -0.63185479912894     -3.30995955223116     -0.10193130739910
  H          -1.79231900511191     -2.30770434730659      2.54281945750622
  H          -2.70560892668415     -2.67753713761921      1.00033153173431
  Br         -0.16019947429277     -0.36191257424689     -0.66576489731001
  Br          2.89855363115327      0.19306941562634     -0.47319781753934
  Br          1.86301545853284     -2.56999320963503     -1.58137911029511
  H           4.71102943320929     -3.04550831998981      1.77730233517780
  H           4.71506108909630     -1.62517700914725      0.75870273171929
  H           3.79087462431900     -3.04724984880913      0.25488759462422
  C           0.56462965132300     -5.42916466572055      1.99399918879330
  H           2.36991040586610     -4.28717832701017      1.93714259371053
  H           1.59230009454206     -4.50111481395390      0.36151857855802
  H           0.38300026660457     -5.26701765753278      3.05408710797342
  H           1.08143433706543     -6.37785712052781      1.87465090362841
  H          -0.39542103007953     -5.49294956943861      1.48804250391422
