26
Coordinates from ORCA-job NEB_reactant E -42.162455287920
  C           1.53135331798667     -0.31084774858292      0.05768405246018
  C           2.28035037404837     -1.42759074348438      0.15196199746615
  C           1.96160053904178      0.95975036520122     -0.53116166125732
  H           0.52661481835856     -0.30320087359669      0.45094682388366
  C           3.68271760260337     -1.57107830547818     -0.34695582751339
  C          -0.02636719261764     -4.34184169345783      2.98902902414363
  C           0.36125900627787     -4.06328004606264      1.75599837831957
  C           0.53849738093359     -2.67001271118406      1.23737506186283
  O           1.85305942515049     -2.56941444629674      0.70479912203718
  C          -0.23963471210328     -5.70237895698709      3.57223282109225
  H          -0.23434446021610     -3.52825632059728      3.67447944260418
  H           0.58764968252011     -4.83681832516480      1.03935267102788
  H           0.39967573636151     -1.93605148442318      2.04130435221458
  H          -0.19289895802386     -2.46974604546958      0.43976706602653
  Br          0.50257918724864      2.25448450027930     -0.51379834893626
  Br          3.47600472513559      1.81683240765264      0.45596086212131
  Br          2.55193670753713      0.81338449384417     -2.42105324317949
  H           4.07639470848979     -2.52134127318701      0.00332567119291
  H           4.31867311734511     -0.76580367300621      0.01349941976902
  H           3.70560872185922     -1.56394727289646     -1.43571676668820
  C           0.05213266951118     -6.86290880310554      2.63109583648191
  H          -1.27714466139094     -5.76344501619125      3.91638291428070
  H           0.39027743985614     -5.78860630250077      4.46317124172262
  H          -0.59482972336053     -6.82235733807037      1.75833980868296
  H          -0.12238301904281     -7.80670023354824      3.14212692651934
  H           1.08781756649004     -6.83872415368613      2.30185235366528
