17
Coordinates from ORCA-job NEB E -29.530272259600
  C           0.69222596487394     -0.19922626178498      1.09596366103525
  C          -0.65389052340201     -0.45070970605708      0.76275961925838
  Br          1.00202294552414      1.23261529755287      2.35578127007622
  H           1.31467939146764     -1.04483841216383      1.36136896955627
  C          -1.03087701501038     -1.83857748585349      0.32832864227235
  C           1.38479608603992      0.48669906094881     -0.53306565406892
  C           0.30871393005355      0.97117810447910     -1.30486374716875
  C          -0.69552733130652      1.67071113562877     -0.58205426692060
  O          -1.39132672754704      0.52927667256019      0.36250602288353
  Cl          2.32517439632262     -0.80133854604365     -1.25903712111889
  H           2.05226808337899      1.20997952443151     -0.07649518730851
  H          -0.03078132527339      0.34583679212740     -2.12143062972323
  H          -1.55698843210770      2.00952140469053     -1.14376051000132
  H          -0.35429896216553      2.40974085811256      0.13721143969378
  H          -0.54956588358494     -2.05482116154555     -0.62900590405089
  H          -2.10731124846509     -1.89575261402875      0.19213500969823
  H          -0.70931334879822     -2.58029466305440      1.05365838588710
