17
Coordinates from ORCA-job NEB_product E -29.584533901900
  C           2.73149709610615     -0.06723785669187     -1.93675321290228
  C           1.47192838492218     -0.83019831378183     -2.35433163691196
  Br          2.19367545619767      0.98773353116000     -0.36809602979932
  H           3.48931811020110     -0.76282026568058     -1.56903295602200
  C           1.29417532386831     -2.12008802428193     -1.60677535795624
  C           3.33911188976742      0.86228269323170     -2.97813485489339
  C           2.43579381029420      1.94286930367698     -3.46769291872429
  C           2.73596528510346      3.22408746032848     -3.35917535869777
  O           0.70242534869218     -0.42031296049616     -3.17725386131925
  Cl          3.81530779254964     -0.20197173239313     -4.36014165413745
  H           4.27015680593742      1.28777138761089     -2.58960656435691
  H           1.51207195715741      1.61190907926601     -3.91783365535035
  H           2.06616921989717      3.98879082604727     -3.71052579216517
  H           3.65534395478439      3.56109727112474     -2.90734965448335
  H           2.04511432629361     -2.83158600282790     -1.94896883337743
  H           0.30530324379344     -2.52685957686369     -1.80056451435102
  H           1.43014199443427     -1.96786681942899     -0.53786314455180
