20
Coordinates from ORCA-job NEB_product E -32.939125382310
  C           2.37463694483115      1.23465764973752      0.13101877446498
  C           1.16313460378038      1.29030485735148     -0.74007829062239
  C           2.21275030997410      0.08663095774869      1.13882849737089
  H           3.25518691458671      1.05733176244886     -0.49852303299620
  Br          1.44221175075077      2.40698065790030     -2.35050920471126
  C           2.57960023245502      2.62828608515445      0.78437886692857
  C           1.59189728030092      2.90245545845847      1.87864901997512
  C           0.40709888168128      3.44237564471116      1.66729203128365
  O           0.11178612460353      0.77671323329301     -0.59836630841191
  F           3.86101015030453      2.69245074924411      1.28431976107233
  H           2.53104848419594      3.40323885310307      0.00697695076247
  H           1.92091476039967      2.62306024040997      2.86895116426939
  H           0.07790767860428      3.73469095053555      0.68329722595409
  H          -0.28700646795542      3.61252970982390      2.47097949478864
  C           3.49478004306211     -0.21166354119996      1.90503130166593
  H           1.91125470137213     -0.80568466009400      0.58462143805756
  H           1.40406861187158      0.32920058187331      1.83055141769753
  H           4.30582670720094     -0.44352931757920      1.21841806894382
  H           3.34072483610474     -1.06863458583664      2.55575049469934
  H           3.79836745187563      0.63230471291594      2.51651232880746
