20
Coordinates from ORCA-job NEB_reactant E -32.922321952610
  C           1.81423429200709      0.31117924066841     -0.15879093966166
  C           1.06364457262901      1.39765586794540     -0.24100679896621
  C           1.98413687092534     -0.48008154345340      1.09897500228679
  H           2.35502178413389     -0.02639438821783     -1.02921434046675
  Br          1.00420420139866      2.37260752611624     -1.92063247467090
  C           2.84877711383139      3.90706962422520      1.07850678054190
  C           1.83213563932658      3.38763853850324      1.74083353265436
  C           0.47690675292541      3.22533756247797      1.12578761549154
  O           0.25825266395340      1.87444223234260      0.71866953862503
  F           4.07021805292376      3.99160752888708      1.61960666011781
  H           2.81682901807971      4.32133636944176      0.08011745111047
  H           1.97706119883105      2.98559330896898      2.73248516898817
  H           0.36084231328406      3.89420571596001      0.26358471274844
  H          -0.31358488309046      3.42428515151500      1.85137921843323
  C           3.44927788509748     -0.48770899035498      1.53409844038831
  H           1.65649656981324     -1.50705581742659      0.91795916534485
  H           1.35857308025210     -0.05628432537747      1.88540576445705
  H           4.07572141381191     -0.92120615235517      0.75803279035004
  H           3.56833508055845     -1.07374388484843      2.44183176806134
  H           3.79521637930792      0.52521643498197      1.72797094416619
