16
Coordinates from ORCA-job NEB E -29.820296476290
  C          -0.77650899208295     -0.84397655936078      0.98911846602095
  C          -0.01067147757227     -0.01526647215356      1.77801723125044
  Br         -0.08092141909185     -2.54315897396152      0.49280257117975
  H          -1.85015100423498     -0.86807271150645      1.09864847299279
  Cl         -1.00270064797863      1.30198325004565      2.51331813594424
  C          -0.46238829805169      0.26464511000140     -0.89058390554713
  C           0.93625994345283      0.27753602495246     -0.82938596445966
  C           1.61115175998126      1.03926171807558      0.10211626498612
  O           1.21035869932111      0.14740015188744      1.73199442929034
  N          -1.11252625707274     -0.46490235233826     -1.83119875945941
  H          -1.01299654265929      1.11542122633536     -0.50794307865531
  H           1.46093953278324     -0.52603921502717     -1.32809911415221
  H           1.18022023274826      1.96473697082202      0.45462450097590
  H           2.68404458102825      0.97163164255981      0.16799642304045
  H          -0.65706118668920     -1.30783579267706     -2.14982917334208
  H          -2.11704892388136     -0.51336401765492     -1.79159650006519
