21
Coordinates from ORCA-job NEB_product E -46.523062609970
  C           2.40114873809659     -0.74988957525651      1.98112537247585
  C           1.83924186503300      0.67288159972010      2.10069423773145
  C           2.18368666249203     -1.25402250263014      0.54955873172954
  H           3.49151994283078     -0.67926124233073      2.10251603432216
  C           2.27649497172643      1.58577023680406      1.05916654633606
  C           1.80546664602245     -1.66102173277395      3.08437804904111
  C           0.66716627028650     -2.51547196375292      2.58712015038568
  C          -0.59865278532959     -2.16347695300613      2.70248507985219
  O           1.12782246630761      1.03520253454503      2.99577013294970
  C           2.89718949515088     -2.51231831263738      3.73699861722354
  H           1.41622490771314     -0.99278886481718      3.86250449560897
  H           0.94899957311360     -3.45042588907793      2.12445821456955
  H          -0.89120361457927     -1.23185424791788      3.15914452785899
  H          -1.39304783942569     -2.78928060270983      2.33648956531753
  F           2.99288905376932     -0.61266332977589     -0.30972354120985
  F           2.43373232028634     -2.54956006869291      0.39298721561213
  F           0.93129232026468     -1.04042402643841      0.11903668460837
  N           2.60211369103162      2.34980579753153      0.27325444748363
  F           3.60005226842693     -3.22839648577237      2.80425355785076
  H           2.45429483627599     -3.23384272803518      4.43013117837529
  H           3.62626821050663     -1.88696164297537      4.26495070187734
