21
Coordinates from ORCA-job NEB_reactant E -46.524830404450
  C           1.88144899576255     -0.01858458430563      0.11228777807117
  C           1.52882829692162      0.53771606857584      1.28938620583731
  C           1.60284182784669     -1.37418284285429     -0.44029981400011
  H           2.43226457651159      0.60110915068491     -0.57889965827737
  C           1.94092733946850      1.90697063432148      1.44390710905409
  C           1.57198658173594     -2.61877811724896      4.37929191233084
  C           1.66055644347866     -1.96163806673296      3.23576853956200
  C           0.51248683631449     -1.23216513262762      2.60660484017197
  O           0.85026100338695      0.13015450763656      2.35734290437058
  C           2.70417333493399     -3.35502932970403      5.01756406078362
  H           0.64337789196073     -2.67605658245463      4.92989650117617
  H           2.60133511686245     -1.92144696617980      2.70528825244198
  H          -0.33061424409194     -1.17615407040731      3.30012783974071
  H           0.17707645141284     -1.73578314580514      1.69716632931244
  F           2.11549259151181     -1.49095350073139     -1.66994639255199
  F           2.11559136971863     -2.39175399465275      0.27813606408448
  F           0.28224962260263     -1.64531091126352     -0.56074234164118
  N           2.27628455803739      2.99326744088815      1.55921288036194
  F           3.87349758974306     -3.21113751304493      4.32001199223315
  H           2.49149978270563     -4.43066011501123      5.06601191474276
  H           2.88953403317577     -2.97788292908276      6.03128308219549
