18
Coordinates from ORCA-job NEB_product E -37.785244945640
  C           3.22202834039074      1.22129907658665     -0.38969468514190
  C           1.73141343513948      1.16655807011858     -0.64271207188814
  O           3.60139615316864      0.17712179979270      0.43825300984775
  H           3.76939023444902      1.08433747549298     -1.32963209178401
  I           1.10691327979920      2.30166950984070     -2.37595584503842
  C           3.54888469637829      2.64089712512233      0.17249713067598
  C           2.82162391884261      2.89366866656396      1.46280996668387
  C           1.79579572469551      3.71611528491559      1.57271728626646
  O           0.93144170217024      0.60496057723744      0.01809886446582
  C           5.06044141448511      2.79402538129525      0.37529348453915
  H           3.25742336144379      3.37960159206190     -0.58051712949290
  H           3.18895197552108      2.34227522834958      2.31804408221009
  H           1.42103052449529      4.27818837294551      0.73261618818145
  H           1.28710744125984      3.86040381265883      2.50941325119438
  H           3.06041729670036      0.16725958664543      1.23856220374955
  F           5.53858853646458      1.94281938348460      1.30548062100030
  F           5.72546394314390      2.53343876196810     -0.77335388637143
  H           5.32338802145232      3.81626029491985      0.69267962090198
