22
Coordinates from ORCA-job NEB E -45.904416360810
  C           0.61642497704215     -0.25282074779962     -1.02925732731070
  C          -0.45898264232101      0.57537058548068     -0.69238884028170
  C           0.38379381363409     -1.57897410865916     -1.66010889372758
  H           1.47994535549334      0.24746846643398     -1.44864229328067
  O          -0.19761226891292      1.89648419318369     -0.78662667178063
  C           1.19075567296232     -0.93595880470261      0.95988102680605
  C           0.21519406031784     -0.35387261044768      1.75495508228232
  C          -1.12638771944889     -0.63994781237323      1.48454741885516
  O          -1.48918214503159      0.17461180723873     -0.07545071187866
  O           2.46858600858477     -0.52674992681341      1.07764186246747
  H           1.03789365447420     -1.96268761883930      0.64699123371639
  H           0.47447338397251      0.57321805658320      2.24689216007719
  H          -1.88846668769310     -0.15853949282078      2.07873035811479
  H          -1.38253244582299     -1.63484804321805      1.14946682978670
  F           1.50769321528121     -2.33504735550587     -1.64887120433970
  F          -0.56825735855010     -2.33078047254347     -1.09524181798439
  F           0.04678229676351     -1.47368561823630     -2.96283770962330
  C          -1.16566712276335      2.77602907670700     -0.23897629144468
  H          -0.77236080795213      3.77815524038235     -0.38914571139492
  H          -1.31029048520093      2.58147206478413      0.82571801250077
  H          -2.12247996922049      2.66216430835623     -0.75331225462794
  H           3.06067721439156     -1.08106118719050      0.55603574306802
