22
Coordinates from ORCA-job NEB_product E -45.956536747660
  C           2.95662642432846      0.04112665536730      1.60560898307300
  C           2.04219800068979      1.18228533466823      2.06645873133755
  C           2.18341687131062     -0.91529676743518      0.71416101288370
  H           3.75691989280109      0.48107827512011      1.00271843844890
  O           2.43693580259225      2.32329767504107      1.51899445021328
  C           3.58719915037448     -0.68250121681709      2.81840502494748
  C           2.57139595616896     -1.43699361836965      3.62987030565436
  C           2.62357487576836     -2.74242617037546      3.81351861821222
  O           1.10517545412614      1.06309847076148      2.80268908424921
  O           4.21504510745401      0.33746970024529      3.57228092479685
  H           4.34693127027300     -1.38549906359865      2.43527291782701
  H           1.79407892318100     -0.82917002169265      4.06836824408034
  H           1.88850757334578     -3.25774654794887      4.40602274761369
  H           3.39353212482211     -3.35078055197986      3.36595574874145
  F           2.93218725822959     -1.97116153031606      0.35174438996390
  F           1.07401075676923     -1.40986548783661      1.26273334567894
  F           1.80811447693354     -0.31523047193427     -0.42725970170266
  C           1.68545479159297      3.48123805701032      1.86860147170689
  H           2.12953128692173      4.30657564876747      1.31918784154694
  H           1.74635269281959      3.65637256629072      2.94398519525511
  H           0.63863373694087      3.34947060379723      1.58901109384452
  H           4.49487757255644     -0.03114153876488      4.41737113162733
