22
Coordinates from ORCA-job NEB_reactant E -45.939803600480
  C           1.68695092136686     -0.09325995092838      0.04574515505326
  C           1.89704010964731      0.73902027111958      1.08671660907583
  C           1.77837150891394     -1.56061761830128     -0.05668643205005
  H           1.38904739474776      0.38290955961313     -0.87290702220503
  O           1.69590942480206      2.04377307653546      0.82744156647295
  C           4.32103258513643     -0.77950370528575      4.64524065081469
  C           3.06569757885241     -0.59260952380756      4.25841058995219
  C           2.61087450434382     -0.77474549070166      2.84739997046924
  O           2.27108597288839      0.52308490680856      2.34622785146879
  O           4.79482299990330     -0.63208786795838      5.89613796133931
  H           5.09723426861020     -1.10013736424881      3.96492688128375
  H           2.31293382006590     -0.26379816498844      4.96162256357724
  H           1.72637348229841     -1.41865459146630      2.81417203536781
  H           3.41230980215265     -1.20941572967262      2.24587857090420
  F           3.01809120277058     -2.07483450383083      0.15142600587188
  F           0.97836888324651     -2.24485962333299      0.79951602853278
  F           1.42496153886737     -1.97099967044506     -1.28153694290509
  C           1.91232285271400      2.97460528412625      1.87534079918554
  H           1.70931563135704      3.94861522082628      1.43614498601084
  H           2.94257581997926      2.93214476363460      2.23483202630666
  H           1.23338661685043      2.79193834954446      2.71089111406180
  H           4.08749308048539     -0.35056762724026      6.49135903141143
