19
Coordinates from ORCA-job NEB E -44.868434717860
  C           1.07754832649420      0.14668156113146     -0.46534731670252
  C           0.45129312668356      1.20020352863835     -1.14474772544605
  C           0.93424886049300     -1.24054093707503     -1.06850926490217
  H           2.08290931736432      0.32191627411539     -0.09246352129626
  Cl          1.08217586020593      2.80809529480304     -0.85500072844372
  C          -0.08419765275434      0.11144604053016      1.08778314788454
  C          -1.37903357932776      0.07004033855943      0.56530125920405
  C          -1.79873209411047      1.13967559543996     -0.27649107038450
  O          -0.76508327935138      1.10955378782826     -1.52215985478109
  N           0.33740684964910     -1.04939518273163      1.87873102716589
  H           0.30968789412556      1.02737971567941      1.51962398536511
  H          -1.86106999104409     -0.89437995599394      0.49084586097819
  H          -1.63078904923658      2.14779625960192      0.09657165358808
  H          -2.76147018997404      1.02596548594250     -0.75947891100022
  F           1.46743352101469     -1.24559954433864     -2.31304048838157
  F           1.65054827063647     -2.13064338714292     -0.35367910908870
  H          -0.10268734764204     -1.60014088426458     -1.14643778783733
  O          -0.24887836453798     -2.08697257781902      1.70277616663196
  O           1.23868952131185     -0.86108141290412      2.65572267744631
