19
Coordinates from ORCA-job NEB_product E -44.912497987680
  C           1.59577654246436     -0.34587251419435      2.05532976599396
  C           1.30529780903253      0.79799852881127      1.11466839218191
  C           1.22728221524906     -1.66427849518644      1.35201042456716
  H           2.68616811834015     -0.36199209226723      2.22315406553427
  Cl          1.45494150957387      2.38073250133181      1.86778971457042
  C           0.95436516436806     -0.21178724831968      3.44875064886513
  C          -0.47132131440023     -0.66774746972323      3.54055042800803
  C          -1.49062531316319      0.16953092706501      3.53583543761726
  O           1.05283481225847      0.71029228235614     -0.03778109436163
  N           1.79947339560009     -0.96306000892099      4.44733780338747
  H           1.02849387794563      0.83995873891587      3.75415653269392
  H          -0.62279406148751     -1.73486091202556      3.61030697131189
  H          -1.35583067984909      1.23704225897606      3.47114202192338
  H          -2.50428462984360     -0.18392228244339      3.58777875032783
  F           1.46031168577880     -2.70621348502527      2.17947858329342
  F          -0.08195623189745     -1.71528206505475      1.03483886888210
  H           1.80435371290480     -1.81747321114528      0.42805589254464
  O           1.22814487231044     -1.42131887820318      5.39611767564559
  O           2.98656851481482     -0.99924657494682      4.24187911701326
