25
Coordinates from ORCA-job NEB E -36.814008305900
  C          -0.16986128192958      0.77673383261509     -0.15783648092287
  C          -1.02268895253308      1.43934195823326      0.76934591072553
  C          -0.74925271620003      0.37996437626812     -1.51388305002488
  H           0.77672745957954      1.30323908841441     -0.28357873586514
  C          -0.49397188570483      2.50867426761237      1.51582005144076
  C           0.24459989863583     -0.79054526901369      0.69773466982982
  C          -0.78172117424430     -1.07821464201098      1.64229772280780
  C          -2.12393963742694     -0.66377122391014      1.26993043677014
  O          -2.10784260598855      0.83400245663250      1.23452261529930
  O           1.49511029187230     -0.69326210370328      1.26333614283084
  H           0.23194124315374     -1.40969460073606     -0.20220989813079
  H          -0.50504491949589     -0.90018806157793      2.67444687166476
  H          -2.88351993119477     -0.88376036070563      2.01663628373130
  H          -2.45006467723585     -1.01188277399926      0.28607006433798
  C           0.32414191573228      0.00060474987961     -2.52757938325257
  H          -1.29027569838803      1.24913128682518     -1.89869455641591
  H          -1.46996050826173     -0.43423533122652     -1.42388946553988
  H           1.03543754488493      0.81417937497869     -2.65321742573866
  H          -0.13553742118047     -0.20108862307416     -3.49217862870920
  H           0.87097378110115     -0.88987710117973     -2.22450450366189
  N          -0.05213577426589      3.44789457025272      2.01429471503576
  C           2.58942869294490     -0.90745889742527      0.40480403703989
  H           3.47773659265551     -0.86344638128912      1.03131793667993
  H           2.65729223374988     -0.13493328734327     -0.36856086856652
  H           2.53242752973985     -1.89140730451690     -0.07442446136550
