25
Coordinates from ORCA-job NEB_reactant E -36.851940121110
  C           1.69302495837342      0.00724745222881      0.19190454283013
  C           1.15684325121608      0.02071948134681      1.42156818213993
  C           2.00603016069414     -1.10909463654418     -0.74952511268645
  H           1.94692598309768      0.98495448309744     -0.20080415829515
  C           0.96504278412142      1.31362137245074      1.99748977790000
  C           3.40539582565796     -3.22360944612860      1.59052701236993
  C           2.67805430266139     -2.35812966773991      2.28421082832946
  C           1.18549705359380     -2.27600322425183      2.21250785919491
  O           0.69849933235876     -0.94871216185066      2.26517662501566
  O           4.75581800406745     -3.28367558108281      1.70232648806595
  H           2.94927818131269     -3.93680264231160      0.90956613355633
  H           3.15960782683803     -1.66880929067546      2.96079946364986
  H           0.74158288884912     -2.73038962465693      3.10759255965060
  H           0.79403421612051     -2.80791516147290      1.33531579161937
  C           3.47854508544405     -1.07331913554985     -1.16157090249733
  H           1.38856504505469     -0.97135172988481     -1.64402750106997
  H           1.76770044988070     -2.08208128821099     -0.32825192533667
  H           3.72616353346686     -0.11318680726611     -1.60826131856335
  H           3.68546669618097     -1.85490857172319     -1.88947937530868
  H           4.11745906289475     -1.22341836273146     -0.29437728057454
  N           0.82195466415383      2.36086133305697      2.43955526935227
  C           5.39421718720156     -4.24926911876969      0.90003709598239
  H           6.45852552221834     -4.16673839093772      1.11118744828641
  H           5.22052284593042     -4.06042060969164     -0.16479124619550
  H           5.05344513861138     -5.26046867070043      1.14592374258442
