25
Coordinates from ORCA-job NEB_product E -36.851706992940
  C           2.44505551923591     -0.83500598846856      0.41538090819026
  C           1.14414066583842     -0.46531206162813      1.10622653457173
  C           2.22301975001356     -0.91023236082665     -1.10016587008970
  H           3.21873371527768     -0.09692754891364      0.64915389017111
  C           1.34861745482481      0.38854493433375      2.26657150567121
  C           2.89643443638055     -2.18113619020405      1.03712998079811
  C           2.61976258878541     -2.17292218824415      2.52162572683009
  C           1.67016725423760     -2.88242150078121      3.10259628502138
  O           0.05102082945812     -0.82200467057233      0.75288185597199
  O           4.27585358541039     -2.33532053431408      0.77129676759733
  H           2.32724075953410     -2.99986017856592      0.56506516341111
  H           3.27553856632750     -1.53236082850765      3.09655051454846
  H           1.49383513364389     -2.83366509485574      4.16325304943059
  H           1.01700627393281     -3.52745655651276      2.53697753126441
  C           3.52614773780990     -1.00467282744803     -1.88049967710346
  H           1.68082164167312     -0.01263069215830     -1.41048304260272
  H           1.58602784752054     -1.76828464564273     -1.32338147002661
  H           4.13621685367334     -0.12076735550600     -1.70988944950162
  H           3.31682416451576     -1.07914930395701     -2.94494130539273
  H           4.09707629544961     -1.87451425655363     -1.57185398785668
  N           1.53323183245789      1.07657253667334      3.16292200342955
  C           4.77056210157511     -3.60733687678808      1.10759516952465
  H           5.82622727025503     -3.60259715691266      0.84441053239736
  H           4.25513156945965     -4.39391091547251      0.54221598548669
  H           4.65960615270928     -3.81472773817325      2.17756139825750
