91
Coordinates from ORCA-job A2R E -115.002097212150
  Ru         -0.14893891869414      2.00284696266810      0.20388542623079
  H          -0.23108989323547      0.46780114610626      0.41655541939809
  N           1.06253005675117      1.57854705468930     -1.41571830294368
  C           0.55303734373263      1.50943767111505     -2.65974796989582
  C           2.40121521600824      1.52479237875992     -1.27861803563797
  C           1.35285564515923      1.58809526483175     -3.78893535648180
  C           3.25346038850016      1.58827943858795     -2.37183994748569
  C           2.72832403275623      1.67694407562846     -3.64985192240404
  H           0.89630824830923      1.57339260447031     -4.76700379229675
  H           4.32141543286670      1.56922734835415     -2.21579998656501
  H           3.37110185984756      1.76939984701359     -4.51146916910651
  P          -1.81336939731793      2.00926385762082     -1.36718142479037
  C          -3.36278259717620      0.90627513264676     -1.24247965504510
  C          -2.33198596230416      3.68045498569772     -2.14006320387303
  P           1.85305247123273      2.13974696211802      1.32847254593483
  C           2.69477327379504      3.85347396176542      1.45873274512270
  C           2.22120883823474      1.17034249784636      2.92246489899339
  C          -0.91373720961334      1.23546948676150     -2.78634884333586
  H          -1.03876751005539      0.15216580410676     -2.66350709614619
  H          -1.30407064168638      1.51958022506556     -3.76631617008394
  C           2.94291749120151      1.30172001225707      0.09666014224841
  H           2.84536024367864      0.22605619440408      0.29902745878028
  H           3.99652386114803      1.57934489094969      0.17618124172933
  C          -1.22729483901052      2.35589896666684      1.65032408570650
  O          -1.91434900611648      2.54763701688251      2.56549568197653
  H           0.02215631376915      3.49978119906435     -0.10138149619411
  C          -3.95658413187372      0.42378215256058     -2.56656311993812
  C          -2.93018721385770     -0.32648873946864     -0.44676230300245
  C          -4.40970478303884      1.64451667591396     -0.40759647063423
  H          -3.23398721797194     -0.15649104664145     -3.13642201471159
  H          -4.80571659722025     -0.22520987511438     -2.34999273826748
  H          -4.31582626164144      1.23629923868809     -3.18643214722345
  H          -2.60222874723618     -0.03279417994254      0.54868335365976
  H          -3.76494132553837     -1.02130625266062     -0.35194900454984
  H          -2.10673193190306     -0.84044450175209     -0.93903591782853
  H          -3.93080230771399      2.09801046841333      0.46186225792870
  H          -4.91665860801873      2.41799054119327     -0.97849513832621
  H          -5.16558577463963      0.94394791799271     -0.05284808329951
  C          -1.07127788113774      4.28145133598086     -2.77099948266585
  C          -3.40895039843925      3.63013831026033     -3.22220126254528
  C          -2.78818253735074      4.59093644032603     -0.99893646840770
  H          -0.81032888440104      3.78909866863009     -3.70583372974843
  H          -1.23378622646614      5.33754091513875     -2.98337396814115
  H          -0.22783294410718      4.20613720920357     -2.08746555881376
  H          -4.38006421223239      3.35726113375651     -2.81997580034606
  H          -3.50568280856253      4.62406368303829     -3.66039629562750
  H          -3.14400435091851      2.94242000799463     -4.02308382051431
  H          -3.75339679850051      4.28792733487893     -0.60344009809309
  H          -2.06042619507491      4.55941636104297     -0.18858781140250
  H          -2.87329426434454      5.61959374870171     -1.34811524272520
  C           1.72149149661742      1.99294963976111      4.11087273084938
  C           1.37124058091366     -0.09835674077624      2.84781272925932
  C           3.67488699603115      0.73888669038880      3.11758288707494
  H           0.73463325131892      2.40106998623149      3.88565579957798
  H           1.63317950301365      1.35760493321499      4.99205810058536
  H           2.39660717932597      2.80837794477689      4.35747487537528
  H           1.65400851005390     -0.70278764234346      1.99036384719714
  H           1.51543638272140     -0.69346338525392      3.74958901196620
  H           0.31635557737389      0.15587814665683      2.76109790493835
  H           3.99899445769662      0.08560093367743      2.31102935627543
  H           4.36014224185024      1.57494163190271      3.18911927709723
  H           3.74565725962154      0.17434081929658      4.04767336048251
  C           2.89471149021148      4.35800579098666      0.02551147354627
  C           1.72512041487775      4.79411070504130      2.17597722346570
  C           4.05580366487029      3.89122270069001      2.15138007918408
  H           1.98748916035009      4.22240923423710     -0.56024463983129
  H           3.12471884903597      5.42300018895025      0.03898585514247
  H           3.71516748468233      3.84575916434330     -0.47328204508317
  H           1.65926337334914      4.57204399948090      3.23699589553915
  H           2.05256681979033      5.82772484545660      2.06657448339147
  H           0.72964848133776      4.69914654726700      1.74361811187548
  H           3.97809990456751      3.69034808589569      3.21570033013507
  H           4.75572492202720      3.18928529621767      1.70228905778963
  H           4.47468355016422      4.89187264993490      2.03836593632016
  C           1.24452043840063     -2.27549169117206     -0.35477522433425
  O           2.33959475083259     -1.85007108455977     -0.04670594746334
  C           0.76125828593634     -2.19230218829416     -1.75693526043243
  C          -0.51301128269442     -2.59985988274346     -2.15039748774601
  C          -0.90068904660168     -2.48983578895235     -3.47364126942169
  C          -0.02255056972059     -1.98906385909473     -4.42242696169897
  C           1.25001930254459     -1.59340475999052     -4.04381419407079
  C           1.63474221950374     -1.68878944318370     -2.72096445934693
  C           0.32719908794874     -2.90334050896092      0.65744032041877
  H          -1.20830641289924     -3.00287850655278     -1.43089169165883
  H          -1.89239742141876     -2.80185168702107     -3.76861890983900
  H          -0.32977862161146     -1.91351054383341     -5.45529009242009
  H           1.94182403649200     -1.21317228352645     -4.78043337037898
  H           2.62214277517563     -1.38132109826843     -2.40919577704774
  H          -0.04926589317254     -3.86063286549752      0.30627393624803
  H          -0.51258908928927     -2.23023687980160      0.82712292713419
  H           0.85898354917965     -3.04118162879479      1.59527541129276
