91
Coordinates from ORCA-job A2S E -114.997511569570
  Ru         -0.28400313609435      2.24247571115986      0.07704235443316
  H          -0.48435807896615      0.74301923260613      0.40929051742231
  N           0.98633391250965      1.64795434179407     -1.45054773305416
  C           0.53696101476377      1.51541234136778     -2.71401730405842
  C           2.31192197806336      1.53390635987304     -1.23857578485676
  C           1.39671881064888      1.43628556772039     -3.79871471811298
  C           3.22011811921261      1.44979822062478     -2.28425064863646
  C           2.76643248615421      1.44520475240994     -3.59189452969216
  H           0.99067148719719      1.36026921398375     -4.79610466644094
  H           4.27437895537314      1.37947592118244     -2.06678658121722
  H           3.45484204738608      1.40875374209710     -4.42138594365904
  P          -1.86759642118698      2.22320389554310     -1.57830481347909
  C          -3.46931651659790      1.18891935741461     -1.47778936293861
  C          -2.27175639791363      3.87709307995899     -2.44642757954482
  P           1.65896534289395      2.32920527055164      1.30296064571088
  C           2.57114963142742      4.00582136372977      1.41859170472712
  C           1.88769432794366      1.40365473752059      2.95038502342068
  C          -0.93890829308911      1.34131679238227     -2.91581522884617
  H          -1.15657134806465      0.27363973068445     -2.78402291052686
  H          -1.24811526931817      1.63030781602603     -3.92303379945508
  C           2.78364723739910      1.39695987481077      0.17459087494075
  H           2.68540534112899      0.33587221871491      0.43749431075734
  H           3.83473991617055      1.67398102787710      0.28279828467329
  C          -1.39867026390239      2.77331160437311      1.43893816578284
  O          -2.09764466037275      3.09209658236174      2.30740567043676
  H          -0.00055819813981      3.69876306768843     -0.32054730940049
  C          -4.09870466858366      0.76180641189363     -2.80514245951559
  C          -3.11390665734023     -0.08296646269014     -0.70349219718973
  C          -4.46648033056031      1.98114317822226     -0.63181393774360
  H          -3.37371305734257      0.28454419920262     -3.46083039867411
  H          -4.88417056998078      0.03436328485987     -2.59815350886348
  H          -4.55565845723743      1.58839607870363     -3.33545275087688
  H          -2.67118666345480      0.17201650883760      0.25716661203218
  H          -4.01450061693317     -0.67077336053058     -0.52629175522490
  H          -2.41270001778601     -0.70516427189276     -1.25833078631704
  H          -3.96204825810733      2.38541663871461      0.24779081091687
  H          -4.91008506091604      2.79965368913315     -1.19305338034804
  H          -5.27448020275157      1.33237641569761     -0.29449860925381
  C          -0.96332560399816      4.37848315391006     -3.06764195610563
  C          -3.32275596010206      3.82897833725901     -3.55350496520014
  C          -2.71021002914769      4.86457268212940     -1.36425380083737
  H          -0.71612698274204      3.84417897333132     -3.98290910146122
  H          -1.05534358049849      5.43575984399511     -3.31309112340345
  H          -0.13898357748426      4.27146204778816     -2.36502992599113
  H          -4.32145301549851      3.67372031039005     -3.15578419929354
  H          -3.32482375439452      4.78838274750214     -4.07174502660815
  H          -3.10211483903425      3.05719340687836     -4.28805221358959
  H          -3.68095298183607      4.60364932488386     -0.95147853156534
  H          -1.98487375904614      4.86964866972852     -0.55169301047568
  H          -2.77586171965234      5.87089933768189     -1.77695604770595
  C           1.36600649551495      2.29334289390962      4.07948046282195
  C           0.98008342067595      0.17491490040701      2.87684755264978
  C           3.30547915545586      0.91170097878845      3.24333270588789
  H           0.41329123270949      2.73808353892694      3.78736477114791
  H           1.20095454781487      1.69631707825698      4.97625049498118
  H           2.06614630540364      3.08512266429135      4.33290192367675
  H           1.25696892922755     -0.47098750508773      2.04691925361835
  H           1.06368375611130     -0.40697111038469      3.79454108763748
  H          -0.05838783205551      0.47330393584976      2.74769533471476
  H           3.64264487703641      0.20893027812602      2.48496844675604
  H           4.02553512002778      1.71755315166038      3.31899040599555
  H           3.29722080166358      0.38537551681359      4.19806889040210
  C           2.88038993376306      4.44027958262489     -0.01844904009124
  C           1.60371579648621      5.01704467248324      2.03582182182303
  C           3.88764038039316      4.01208234313247      2.19339778122920
  H           2.00558227071202      4.31717730110812     -0.65409622367213
  H           3.15465910400326      5.49463946606865     -0.03220728418773
  H           3.70683452502843      3.87518836423078     -0.44506527384117
  H           1.45150929258721      4.83385383469595      3.09551434329042
  H           1.99163870640002      6.02873697486308      1.91966378018138
  H           0.63759855758334      4.95759407366647      1.53576454907727
  H           3.73628038680944      3.85850174214015      3.25772053575437
  H           4.58073998289959      3.26248364630433      1.81652502245160
  H           4.35836236596521      4.98793347788038      2.06861489303954
  C           1.60264566227175     -2.18127599177559     -0.08445355306269
  O           2.78348846538505     -1.89486963574787     -0.05255155321003
  C           0.95183358246719     -2.89680740525820      1.03946431399871
  C          -0.41908097723706     -2.82493533378731      1.28224827955479
  C          -0.96370619270640     -3.48668605864511      2.36652100802873
  C          -0.15673309353270     -4.23466021166376      3.20910257822252
  C           1.20733138838591     -4.30857552077226      2.97660107796129
  C           1.75901694586342     -3.63631887215453      1.90414887098312
  C           0.72498852051954     -1.78829515593960     -1.23850828744515
  H          -1.05684041161339     -2.22582343430898      0.65205716357963
  H          -2.02429849111386     -3.41705288991838      2.55764418122376
  H          -0.59036917459140     -4.75453773131912      4.05070137323912
  H           1.83922868318780     -4.88597896429201      3.63526405090482
  H           2.82129485050063     -3.67394507585411      1.71141867897545
  H           1.33827052022086     -1.52052370899993     -2.09677730587690
  H           0.16070246032547     -0.90528985619241     -0.92341360248655
  H           0.02882748925206     -2.58036892421322     -1.50026988502548
