91
Coordinates from ORCA-job A3S E -114.981548809210
  Ru          2.80571573228141      3.97251381900101      0.41691837828445
  H          -0.48927780848265      0.04686195434388     -2.09370263383148
  N           2.26454695952685      2.54321439086985     -1.04218189285601
  C           1.34204053522571      2.80020284427963     -1.97731460397029
  C           2.95369154958248      1.34952650956889     -1.09330324004605
  C           1.12194200408736      1.98832007630914     -3.06861398689787
  C           2.75204734184646      0.47940017573912     -2.21071825093135
  C           1.87480235759641      0.80906536626278     -3.19469912736829
  H           0.37656903889627      2.25056482143578     -3.80310552377953
  H           3.33086709243385     -0.43189736589430     -2.25284202148010
  H           1.73263984058165      0.16777748333787     -4.05402710535799
  P           1.36622344204533      5.28610912958552     -0.81782722121256
  C          -0.04303831530655      6.22739844898536      0.03654371416399
  C           2.12396573555169      6.33859228827921     -2.19941937209336
  P           3.98223919239834      2.18696100908426      1.22229288931042
  C           5.77353767912454      2.11057913772528      1.77774891854592
  C           2.76303053641977      1.68906205618511      2.59661755505592
  C           0.45032701606482      3.99246554440733     -1.75391956671335
  H          -0.38087147688729      3.65928871013522     -1.11891710336820
  H           0.02800561458404      4.36497675714551     -2.69039454533738
  C           3.79723040074414      1.00319304722921     -0.05585559111628
  H           0.94803639531888     -0.66845266940254     -0.52215944403857
  H           4.36091256717022      0.08224353357068     -0.08134129045046
  C           3.24759112972406      5.22821959666782      1.68069389218835
  O           3.49602504704398      6.03986707016870      2.47006157195033
  H           3.99639535293175      4.40217264767559     -0.42429792312895
  C          -1.31114402746738      6.40458944897592     -0.79715146184231
  C          -0.38204768865312      5.38167383939703      1.26926265020388
  C           0.47630122956239      7.57983067050048      0.52302066107003
  H          -1.75251081231244      5.44548156896883     -1.05809397958646
  H          -2.04392087696985      6.95791139978033     -0.20938166252718
  H          -1.12733519383718      6.96343923572594     -1.70819974106087
  H           0.47148506203978      5.34809227752413      1.94989297379257
  H          -1.22116664843055      5.82331982131868      1.80620481095632
  H          -0.66477172845127      4.36461878986045      0.99322910952384
  H           1.45014505457521      7.45953611905005      0.99796148765550
  H           0.56712325169200      8.29125107580860     -0.29339762869797
  H          -0.21153360207938      8.00055668467511      1.25631282794887
  C           2.85676463813832      5.35065669857396     -3.11330332679703
  C           1.13762127144429      7.14631594963556     -3.04002527315118
  C           3.16117664028112      7.26543698502525     -1.56212222971725
  H           2.16411682960513      4.75125841507074     -3.69971115686364
  H           3.49926077330718      5.89484371561574     -3.80398021452390
  H           3.48443609938279      4.68250330687503     -2.52093335103093
  H           0.68899108342969      7.95604728648842     -2.47070001922773
  H           1.67283362437185      7.59141277722161     -3.87868287071136
  H           0.34932654754269      6.51676307145675     -3.44874319066540
  H           2.69466786506083      8.06967588007455     -1.00115181337796
  H           3.79793833654086      6.69183979023417     -0.88541587851089
  H           3.78711160777891      7.71113926767204     -2.33370342947761
  C           2.99962159084687      2.44512704759034      3.89999273698719
  C           1.45106264713196      2.17986688252963      1.95263416380739
  C           2.66566115788308      0.18825160524074      2.84584783369237
  H           3.15212164927778      3.50785451731313      3.70578828279313
  H           2.13622411827856      2.33573452079251      4.55842739484659
  H           3.86837917900493      2.05754102606685      4.42722071216417
  H           1.15308464523961      1.51246125011689      1.14034849059730
  H           0.64172218313412      2.20035540776109      2.68692805978524
  H           1.56500451781948      3.22749142008343      1.55963448628984
  H           2.58245302629029     -0.34094984852099      1.89757518455573
  H           3.53700890706630     -0.18499077780088      3.37777533420366
  H           1.78053785063418     -0.03527426539922      3.44187464431450
  C           6.56087267077671      2.27029572908417      0.47503769841270
  C           6.09028957701963      3.30089155755868      2.68060122988267
  C           6.11704811966320      0.79034080837070      2.45924572282444
  H           6.18112339376541      3.13570670730799     -0.07314634965412
  H           7.61836556059056      2.42531486366290      0.68368843901762
  H           6.45684151307970      1.39170464977128     -0.15750426394626
  H           5.61628801089357      3.21111280682167      3.65357247181690
  H           7.16640596886793      3.37344038023641      2.83567371586952
  H           5.74615384646436      4.22122246941498      2.20734072147722
  H           5.66455093251614      0.72926200943001      3.44662451022281
  H           5.77175171190851     -0.05305735165174      1.86420301603181
  H           7.19709088151558      0.70484840861682      2.57770788730605
  C          -0.83247326801084     -0.06501191935439     -1.05424507207021
  O           0.28404106463853     -0.05784861238991     -0.18435400560440
  C          -1.71449022655721      1.10824235972213     -0.70595977016855
  C          -2.36833851165559      1.81917249656973     -1.70327174607585
  C          -3.19221021119600      2.88334462162251     -1.37980737798453
  C          -3.36520839549095      3.25109489941161     -0.05565996405450
  C          -2.71501637196194      2.54566632173549      0.94310166905024
  C          -1.89855711308875      1.47617324257800      0.61978766512481
  C          -1.62413280935519     -1.37279096965854     -0.92790353013840
  H          -2.22914706546805      1.53859512720295     -2.73748477216620
  H          -3.69752445866380      3.43007339298772     -2.16313945054924
  H          -4.00386130545620      4.08488873441852      0.19672782470563
  H          -2.84890468609952      2.82743789605932      1.97771110160910
  H          -1.38876374049162      0.92132563540628      1.39183819604037
  H          -1.00327145845608     -2.22002151198142     -1.21376998773837
  H          -2.49835972272049     -1.34215809607403     -1.57268695353725
  H          -1.94882967668993     -1.50650590087871      0.10140028135614
