21
Coordinates from ORCA-job NEB_product E -54.527508636040
  C           2.18917288765671      0.78937991163574     -2.25356709351205
  C           0.80455485344802      0.29582566040804     -2.69826787344552
  O           2.16476721881935      0.87914869125986     -0.85109411560926
  H           2.96893028778521      0.09302634168395     -2.59833375973364
  C           0.71971623948276     -1.25947155288018     -2.75072266113320
  C           2.45593699864967      2.19832891459526     -2.81614396587569
  C           3.60444995415800      2.85633704693812     -2.10054887748748
  C           3.50214795880967      4.01466775571722     -1.48036900976147
  O          -0.14901362219466      0.97827010242339     -2.90169515327474
  C           2.78196785705113      2.08785864551792     -4.30205165527033
  H           1.54719352238885      2.79940387566889     -2.71224290680465
  H           4.53728667361618      2.31172726698755     -2.13180304126203
  H           2.57548544214963      4.56182772931288     -1.44323118119671
  H           4.34471735787286      4.45878623228786     -0.98103802921514
  H           2.17719945281266      0.00043527696321     -0.45150834770573
  F          -0.50977104341956     -1.71148053826847     -2.94090160482428
  F           1.50155718302337     -1.74319271994890     -3.72236403024011
  F           1.17605821342510     -1.78562394634033     -1.59503239122911
  F           3.93196072367299      1.43229894596272     -4.52037515011484
  F           1.83991897507019      1.41681420485339     -4.98780398098258
  F           2.90096286572188      3.28473215522188     -4.87920517132145
