21
Coordinates from ORCA-job NEB_reactant E -54.539044152370
  C           2.57240798855212      0.20329826062055     -1.22758178376333
  C           1.35044308535242      0.45022053431843     -1.70771475417682
  O           3.46609925358144      1.15970095207015     -0.85279534281628
  H           2.87590294733214     -0.82756178203883     -1.11554343085060
  C           0.44908694755083     -0.69638355351905     -2.09498578231275
  C           2.68586938509034      2.22453942027894     -3.90948155449959
  C           2.53616540923496      2.98226544878664     -2.83451262202558
  C           1.42988915602622      2.82797986695398     -1.84043443074451
  O           0.70133563002557      1.62582823756430     -1.96366376048029
  C           3.84749669214783      2.36804858815750     -4.83737076790391
  H           2.00480211011340      1.43178779133961     -4.18006654143599
  H           3.24033917695203      3.77147570223002     -2.61256781834005
  H           0.68574222968295      3.61702364869089     -1.99279654643503
  H           1.84064342732082      2.92851669152302     -0.82953906908839
  H           4.32456488821305      0.75788482694125     -0.68272356400309
  F          -0.76555595368836     -0.59891753360749     -1.54879953426754
  F           0.26855113373581     -0.74915197428925     -3.42557565346104
  F           0.93905911462332     -1.89095538152919     -1.73499176014952
  F           4.71921116548894      1.34608923974246     -4.69449530153490
  F           3.47832019520068      2.36551295963710     -6.12575938776335
  F           4.55612601746348      3.48919805612897     -4.64050059394743
