18
Coordinates from ORCA-job NEB_reactant E -30.508096674890
  C           2.30823243725581     -0.59357689714887     -0.13715266298631
  C           1.53825754174341     -1.68534018053136      0.00915122013917
  Cl          2.70255220687684      0.24436296020287     -1.58544611265080
  H           2.76331295427979     -0.16057032392111      0.73989409933235
  C           1.41188369309428     -2.14695547725017      1.35515916155632
  C           3.22364230376087     -3.22964303181014     -2.23327784625327
  C           2.27286682820486     -2.53686379299981     -2.83653905021177
  C           0.92783990099922     -2.22296205095017     -2.24586853550895
  O           0.83684600484801     -2.44981479605839     -0.85054296313188
  C           4.55560125744892     -3.52933857957705     -2.83016721933325
  H           3.06498597443435     -3.61978690960071     -1.23557377009937
  H           2.41628697567022     -2.14994474993472     -3.83582910267780
  H           0.17192833196814     -2.89593227239723     -2.66802326760917
  H           0.63661944220100     -1.19401229242876     -2.48739954473804
  N           1.32016100624914     -2.51492278251695      2.43526301039577
  H           5.34674569470728     -3.11127852536939     -2.20815948224164
  H           4.63856495160134     -3.11531550396948     -3.83179141430078
  H           4.70977249465651     -4.60670479373857     -2.87749651968058
