18
Coordinates from ORCA-job NEB_product E -30.506195040180
  C           3.11756095721243     -1.41812355154526     -0.68870659599844
  C           1.78626867114639     -1.15859685635767     -0.00944489248442
  Cl          3.68247699174056      0.09037750199602     -1.45703628615471
  H           3.86126698882194     -1.68885069945772      0.06890714940549
  C           1.34003102358450     -2.32919918390931      0.73585247207754
  C           2.97161577993904     -2.56753142058639     -1.70965295977427
  C           1.91987312646150     -2.21896788896274     -2.72530355910758
  C           0.74355154859647     -2.81074951897038     -2.79862338929452
  O           1.15285396785186     -0.14279915502091     -0.05890090595570
  C           4.30914057212494     -2.86699959306455     -2.38320369281314
  H           2.64846084278411     -3.45178765911676     -1.14674517834114
  H           2.18583570777219     -1.42460594482477     -3.40807112970601
  H           0.46019000754377     -3.60303949352335     -2.12371673335418
  H           0.01320627093416     -2.53165317190816     -3.53791507166953
  N           0.99768982007335     -3.24846072752317      1.32491741505108
  H           5.05432892899621     -3.15592939545545     -1.64579899383227
  H           4.66907954550211     -1.99327332284289     -2.91954744556852
  H           4.18416924891446     -3.68280991892652     -3.09061020247965
