20
Coordinates from ORCA-job NEB E -38.293877781170
  C           0.18231602310080      0.46895948917322     -0.62289308680557
  C          -0.52694953558379      1.27622661810190      0.35839040975191
  N          -0.58083956521580      0.15590532967107     -1.81950100178933
  H           1.14794232610373      0.88975759985174     -0.92303055843110
  C          -0.10130665452760      2.60874868865485      0.87259344052280
  C           0.71695173760314     -2.05170327611993     -0.45764770994922
  C           0.34303232243156     -0.88249544591174      0.28348905640309
  C          -1.07731396289454     -0.83614199771132      0.89429301910542
  O          -1.29806921493476      0.53287494599948      1.18450817226176
  C           1.99482750462971     -2.55760942389740     -0.39967328249984
  H           0.04067056291429     -2.50990662622655     -1.16427968344102
  H           1.08697453795056     -0.64434369366496      1.04832121480484
  H          -1.19053409517929     -1.40061918245459      1.82108107017484
  H          -1.81118430746399     -1.19306128452343      0.16133788290223
  H          -0.98151269845710     -0.77264053157318     -1.82777189923625
  H          -1.31230835177470      0.83708075536120     -1.97760290109524
  F           1.21999190976990      2.60634345598399      1.21235796147938
  F          -0.22379172618832      3.56539280353128     -0.08234220072465
  H          -0.68353527407329      2.91859115214338      1.75265446185118
  N           3.05463846178948     -3.01135937638896     -0.31428436528522
