20
Coordinates from ORCA-job P E -29.192521667580
  C          -1.23035368575842      0.16067059486945     -2.54313317304124
  C          -0.08295956601676     -1.69206613798673     -0.85591635681859
  C          -1.46734996371479     -1.94980429907818     -1.36483756489080
  C          -2.01558988372813     -1.06206051757902     -2.17783162736671
  C          -0.63560360266242      0.78255483728700     -1.25641969548708
  C           0.01004114015014     -0.25510461297619     -0.33224661174299
  H          -1.97593351965582     -2.84927875918937     -1.05869270046666
  H          -3.00557766582886     -1.14708108620985     -2.59187165091642
  O          -2.08321177656223      1.05374819267860     -3.22295223560833
  H           0.19414254831010     -2.39080593980212     -0.06704064975160
  H          -0.39561413705612     -0.12983221745100     -3.20884962494038
  H           0.63081965125640     -1.80917547542744     -1.67740532192012
  H          -1.45659903360959      1.27757531757887     -0.73436473404083
  H          -0.43904872548314     -0.20248515601703      0.66172897868879
  H           0.09639706011746      1.54355259779804     -1.52777714748202
  Cl          1.74471367152814      0.13872295746539     -0.07397026757925
  C          -1.43447011464991      2.10521883968229     -3.89097435523261
  H          -2.19757367474476      2.60367962239417     -4.48594503520187
  H          -0.64611431637589      1.72760718468947     -4.55409833281763
  H          -0.99538440551541      2.82850405727364     -3.19507189338367
