20
Coordinates from ORCA-job TS E -29.094551810100
  C          -0.49752303769952      0.04738385183462     -0.84027234606589
  C           0.79206504480067     -1.98686428932930      0.71592557236924
  C          -0.53955374234791     -2.01521567216555      0.43867511225509
  C          -1.17323429164482     -1.03102220388902     -0.33773037822646
  C           0.13139688342814      0.87748211997870      1.18411115770966
  C           0.91176627572343     -0.02583587820103      1.83129048680147
  H          -1.17757173852327     -2.70360694954761      0.97573507411787
  H          -2.25194727853864     -1.00581154092030     -0.37517309515139
  O          -1.19281164538249      1.03805726544753     -1.45147086674330
  H           1.21587093212064     -2.70347349226970      1.40084806069488
  H           0.56056458990168      0.00207927330714     -1.06333883908828
  H           1.49424566033598     -1.53946996396598      0.03697544483926
  H          -0.90004337962905      0.98430049540548      1.46436000384725
  H           0.57894633100320     -0.59263891591231      2.68288775840957
  H           0.57914137118931      1.68955795442193      0.64063228721690
  Cl          2.64299660686133      0.14069973665700      1.76383083413363
  C          -0.43182846445651      2.00883678999011     -2.12949030878909
  H          -1.14237029878571      2.65473785362577     -2.64191760439145
  H           0.23849077486749      1.55061413098348     -2.86378951402889
  H           0.16139940677604      2.61018943454903     -1.43208883991008
