19
Coordinates from ORCA-job R E -25.225622758130
  C          -1.48351183600048      0.08862834897643     -2.91439098639056
  C          -0.11905387824716     -2.27182266143108     -1.57981106041234
  C          -1.42443888051415     -2.02354592799459     -1.60803147893379
  C          -2.06853089999364     -0.85247477886350     -2.17557454865037
  C          -0.67959014831605      1.30730830101870      0.13661438070456
  C           0.29243865236239      0.43999741835533      0.30970872029246
  H          -2.10189276372550     -2.74297081992031     -1.16390032732082
  H          -3.12982515924670     -0.76804015396137     -1.97344284569341
  C          -2.19069447772731      1.26988280774931     -3.48239601379543
  H           0.27171346909795     -3.17211495403544     -1.13684164025467
  H          -0.43019071141889      0.02318078860026     -3.14845959222859
  H           0.60784823400368     -1.59356171368826     -1.99144939479186
  H          -1.61741982627706      1.18395511324574      0.64209317684641
  H           0.26630563013409     -0.43908177334860      0.93628226489166
  H          -0.56408149923041      2.15571217307859     -0.51348358279839
  F           1.47402099009791      0.56773744740671     -0.31508320259644
  H          -2.14233736098788      1.24878252345846     -4.57160704473799
  H          -1.71085195720508      2.19222516664969     -3.15535660784723
  H          -3.23466757680575      1.28827269470394     -3.17840021628318
