30
Coordinates from ORCA-job P E -38.059474890200
  C          -1.61985554633653     -0.10212258013423     -2.30552161543894
  C          -0.15068132726988     -1.32744782549306      0.00017214911954
  C          -1.60188964676329     -1.57026118572774     -0.28368176154851
  C          -2.24940544777429     -1.02790958139587     -1.30011502094849
  C          -0.25585284929342      0.40358900620966     -1.81239487915663
  C           0.56280585724007     -0.71914921128234     -1.19931414150798
  H          -2.10899524273687     -2.23451259286596      0.40258169248400
  H          -3.29158636080022     -1.26074980318485     -1.46962923108663
  N          -2.45373391198025      1.04032781688971     -2.67417044040831
  H          -0.05490061610938     -0.64137451925673      0.84964118381855
  H          -1.44582578725645     -0.69268364902126     -3.21152878101099
  H           0.33120918746739     -2.26532265960208      0.28715205286428
  H          -0.40335609467647      1.16920287923711     -1.04888572098135
  H           1.56088366741897     -0.36928801524900     -0.92159687398047
  H           0.27745208830850      0.86016747597867     -2.64654304205230
  Cl          0.84163628402671     -1.99785136010096     -2.42765674211932
  C          -3.25155642344458      0.81706442360448     -3.88075463102327
  C          -4.33907208356698      1.87396083482517     -4.06761843469649
  C          -2.32779140679063      0.86785292458876     -5.10271509441807
  C          -3.16311270296018      1.60263771070432     -1.54252802030761
  H          -3.74506573220434     -0.17345658494154     -3.84500192617017
  H          -3.89963493946710      2.86786612793699     -4.08349602962081
  H          -5.08991698595708      1.82930551736272     -3.28415554943008
  H          -4.83788645338691      1.70366361717137     -5.01894890488870
  H          -1.83384274688907      1.83522855226005     -5.13919532748145
  H          -2.90661399563216      0.73210069120517     -6.01284998541249
  H          -1.56377222005055      0.09636646024034     -5.07256742571505
  H          -2.51049035315626      1.57797913111878     -0.67219048489528
  H          -4.08709463345516      1.06612517084294     -1.28422129356867
  H          -3.41004357650362      2.64356122807942     -1.74640572041835
