30
Coordinates from ORCA-job R E -37.983998368150
  C          -1.01600611670227     -0.28691399230836     -2.81908270547991
  C           0.68492221841865     -2.43129787065643     -1.53753663491019
  C          -0.63522641769369     -2.46207338203104     -1.72589019321762
  C          -1.47976249478879     -1.42015474829433     -2.25487825143068
  C          -2.65700080837213      0.60209426662074      0.75831043845100
  C          -1.42525600555408      0.62187867830366      0.29164157675958
  H          -1.16648139468478     -3.36329951505861     -1.44080584744596
  H          -2.54088475266695     -1.60237334545690     -2.17240448463339
  N          -1.72033868820095      0.78583589063500     -3.26492200612600
  H           1.20959912233919     -3.28379911906261     -1.14241282294128
  H           0.05373976561304     -0.17183190588779     -2.92960158900165
  H           1.28852337369307     -1.57286803693337     -1.77655232665548
  H          -3.07366915268042     -0.31462899993312      1.13640529980008
  H          -0.77966046618656     -0.24089818375677      0.24880200264110
  H          -3.28371160606635      1.47672026503321      0.77880103171684
  Cl         -0.69406807874905      2.04849677294716     -0.32458720831235
  C          -3.16331499853705      0.84223829947156     -3.13976602574230
  C          -3.65814655093030      2.26618639326431     -2.88986616981043
  C          -3.85509391663770      0.22910936402907     -4.36422234409401
  C          -1.06441059666158      1.79166671794512     -4.06096105319728
  H          -3.42013962525278      0.24691650722468     -2.25720123048450
  H          -3.55041360480259      2.88723755398779     -3.77527181873263
  H          -3.10704089050217      2.71661200406470     -2.06816884967160
  H          -4.71158448764322      2.23844131673400     -2.62279683127368
  H          -3.65310713742479      0.82186211307181     -5.25365128310722
  H          -4.93008698327511      0.19548309991102     -4.21052024518926
  H          -3.48948676122477     -0.78103591236913     -4.53045680894879
  H          -0.00890246822872      1.54824573931696     -4.16538234275774
  H          -1.14406447741937      2.77365701801119     -3.58855246699392
  H          -1.50038599917778      1.84888301117647     -5.06317880921071
