23
Coordinates from ORCA-job NEB_reactant E -36.727908363880
  C           1.46641309571299      0.06275642414341     -0.29809644509122
  C           1.66708503750605      1.37544611349272     -0.13229778976415
  C           1.95866020020657     -0.96701729015674      0.65536268143285
  H           0.94209019315411     -0.30883162199966     -1.16133688571405
  C           1.18021759462087      2.35570137928112     -1.16493359117076
  C           3.05785197148648      4.02972479371862      3.54049410068198
  C           3.33411748844130      3.27640215634520      2.49424555289652
  C           2.45932449584014      3.16375552942362      1.28221647224271
  O           2.36933422650444      1.78684398092034      0.95131241255410
  H           3.72462309935083      4.09511222606085      4.38220708345103
  H           2.15837105888338      4.62092256517958      3.59555301294177
  H           4.23412976306089      2.68033076460875      2.45021188678793
  H           2.91738440250337      3.72893182380665      0.45745438469252
  H           1.46514285816126      3.58007281273333      1.48997708514466
  F           0.95945549567359     -1.82152304967338      1.01613934731039
  F           2.91175420237303     -1.76270462378355      0.08566887212193
  H           2.38666952484912     -0.53842846924614      1.57166001051902
  C           2.27052623319663      2.63296018956834     -2.20450701237494
  H           0.86665942436717      3.29030320787978     -0.69836402579629
  H           0.31359482353854      1.92506523987508     -1.66632076012726
  H           3.16065046807458      3.05431659863144     -1.74288425561680
  H           1.90545615461556      3.33398814771967     -2.95109733861948
  H           2.55278818787910      1.70857110147097     -2.70136479850244
