21
Coordinates from ORCA-job NEB E -44.104353810370
  C          -0.73203795981839     -2.22946278736334     -1.07978564101718
  C          -1.33902906731270     -1.42115389717485     -0.21017969450182
  O           0.58837655271124     -2.20173447999227     -1.32577760166265
  H          -1.25316267222722     -3.02820077918919     -1.58293734347205
  C          -2.81794498305235     -1.40894668486173      0.06280233741026
  C           1.46176466690144      1.36371528355148      0.88142443444320
  C           0.75408298072670      1.45707522614657     -0.23484491637536
  C          -0.60319231846844      0.83665241616145     -0.30920349250482
  O          -0.58940347363257     -0.41779466171589      0.38837761352063
  C           2.84277092241838      1.83532655358823      1.09591968189954
  H           1.03258690370603      0.81473249031367      1.71089171821527
  H           1.12839977642452      1.95339569862937     -1.11936791784969
  H          -0.90895490666847      0.69278306981758     -1.35122629860017
  H          -1.33468945606011      1.50325515406415      0.17488613513574
  H           0.96792385282342     -1.42655942382311     -0.88335464093647
  F          -3.50726733987062     -1.95563510471777     -0.99016738544068
  H          -3.18581708956593     -0.38418278299990      0.19344046226211
  H          -3.07322791601405     -2.00071656907687      0.95091931593378
  Br          3.10997235653117      2.39764393685106      2.94956271929890
  Br          4.09650627693616      0.30899425039762      0.73528557962039
  Br          3.36234289351181      3.31081309139378     -0.05666506537895
