21
Coordinates from ORCA-job NEB_reactant E -44.110689114030
  C           2.45311692148329      0.88691071021231     -0.34217188948762
  C           1.35946140895310      1.62519585983232     -0.51783676660764
  O           3.40717447052594      1.07262574935775      0.63269959285160
  H           2.60976847925846      0.05843339386260     -1.01635495067815
  C           0.36797061379240      1.30273586164023     -1.60904744741377
  C           4.18244731446419      3.91147237075949      0.92748916385686
  C           2.96102926327620      3.94697204466684      0.42151424577154
  C           1.77309891166459      3.33782009316134      1.09928516504301
  O           0.90283093099171      2.72302547404883      0.17482899305075
  C           5.40855341430406      4.41804740243737      0.28192469274112
  H           4.36787211819821      3.43232631974864      1.88097414157666
  H           2.75127930072212      4.39931070979458     -0.53899194606784
  H           1.16746821299836      4.12963202177336      1.55523472998308
  H           2.08964259813224      2.63398289578699      1.87522848140528
  H           4.14161770548613      0.47233440776540      0.47209468322123
  F           0.61987428379802      0.09270617395154     -2.19236260861671
  H           0.40468616327311      2.05791459814030     -2.40350022343625
  H          -0.64354641804597      1.26474657641842     -1.19048518487883
  Br          6.39418780902928      5.59715533842878      1.51586813122817
  Br          6.57564634210188      2.87577601005455     -0.12728838705449
  Br          5.12502015559267      5.38907598815839     -1.37170261648801
