17
Coordinates from ORCA-job NEB E -34.582923622760
  C           1.07930972923755     -0.12578779210412     -0.39998827459465
  C           0.44561972418822      0.87006555184566     -1.16099034849824
  C           0.64533100269978     -1.55042667096311     -0.67897061650898
  H           2.15442761064773     -0.05043468452944     -0.26884649440353
  H           0.96551277237701      1.81443618624136     -1.33608335191765
  C           0.31973038036947      0.25499203973724      1.30905423534862
  C          -1.05515803284664      0.15351757271468      1.07068580921775
  C          -1.62417978347647      1.05331708007589      0.13206031615631
  O          -0.83976763820433      0.84498871695689     -1.29450576343940
  F           0.87806271014704     -0.62855316856330      2.15176346568811
  H           0.77515353276368      1.23107361995744      1.46611691129827
  H          -1.51979551400857     -0.80568788326521      1.24289908757515
  H          -1.42091886008063      2.10862018076948      0.28811622124299
  H          -2.65430125954000      0.86801900009842     -0.14505649056599
  F           1.26358591343818     -1.96763884673709     -1.81669923574282
  F           1.02622887291809     -2.42182070921363      0.27590143738446
  H          -0.43884116063011     -1.64868019302116     -0.83545690824038
