17
Coordinates from ORCA-job NEB_reactant E -34.620528798540
  C           1.98914023772982      0.06619282642063      0.11914864161511
  C           1.27142757306368      0.92306714454592      0.83968368370797
  C           2.19427550099784     -1.35597192021076      0.51881340939683
  H           2.45576477226188      0.37632298600868     -0.79958369812813
  H           1.14921208185603      1.94983755710522      0.51052006122596
  C          -0.52003830112393      1.45609651473373      5.08761247750637
  C          -0.71335910099536      1.02368929224851      3.85670979298193
  C          -0.03836910052037      1.61934694598753      2.66454209285981
  O           0.66164544032265      0.58267734256560      1.99153205640095
  F          -1.15146353122037      0.91056456578988      6.13215395850055
  H           0.12050846721897      2.27491544209892      5.38424794115857
  H          -1.36886493498095      0.18732180268684      3.66765174089262
  H           0.65823064358596      2.41123124100938      2.96937423906507
  H          -0.79288336309842      2.05105832657179      1.98998558923988
  F           1.70827248639665     -2.20714633589328     -0.42713386970152
  F           3.51982985947949     -1.65050208305525      0.61802967875497
  H           1.71767126902643     -1.60610164861333      1.47681220452305
