25
Coordinates from ORCA-job NEB E -42.912786982060
  C          -0.80082162536256      0.16215170800846     -0.28816404946562
  C           1.87998932842816     -2.10385452863736      0.89769585348576
  N          -1.78048578466680      0.46512854802105      0.49241828397721
  H          -0.04269163746380     -0.51999448535500      0.05841199596583
  C           1.18439849254104     -2.49684411523924      1.91741349369843
  C          -0.68187995170223      0.80039467361193     -1.64159871237119
  C          -0.49926006933700      2.29469024874875     -1.52119752454606
  C          -1.28157317928141      3.17723656365717     -2.11003880849414
  O           2.43924380484451     -1.70188882805033     -0.03745350600591
  C           0.50934459522395      0.19144202767111     -2.38062451412515
  H          -1.59139182275141      0.60138822663669     -2.22080300192372
  H           0.34300380761348      2.59481802135173     -0.91535404430989
  H          -2.12401901590397      2.87645492214332     -2.70562930937512
  H          -1.12471909390171      4.23620715842117     -2.00061131029467
  O          -1.80309651762870     -0.19573420682541      1.74955371323981
  O          -2.70262647466955      1.22637263757300      0.29757298537435
  C           1.42808506407202     -2.02223212498112      3.32441950157181
  H           0.48432337123911     -3.30501442069691      1.76877055841694
  H          -1.01165885574053     -0.76083002936987      1.81759787572005
  H           1.82638170720698     -2.83714842980694      3.92903399257731
  H           0.49593603956480     -1.68105991485827      3.77888989887032
  H           2.14178544271347     -1.20186592795801      3.32850124051195
  F           1.67774548734916      0.53460300608161     -1.75113593947091
  H           0.57311475481496      0.57003889635564     -3.40568346000340
  H           0.46087213279802     -0.90445962650322     -2.38198521302407
