25
Coordinates from ORCA-job NEB_reactant E -42.969012490410
  C           2.24872415831722     -0.06286476715270     -0.93638434722150
  C           1.37061566423271     -1.08529033746255     -1.06855183909831
  N           2.25812150895072      1.18206551014807     -1.58379564250034
  H           3.07828562654564     -0.18216885464590     -0.25652178341546
  C           1.49635497219357     -2.26690907292785     -0.14023229895085
  C           2.27384280181756      0.41552244328866     -4.47909671942339
  C           1.70354718682747     -0.63344063195946     -3.91024036744682
  C           0.37949924869823     -0.59279058027992     -3.21017439027852
  O           0.42042564457348     -1.29490242655998     -1.96942735097922
  C           3.61089829463156      0.39650079998847     -5.13938340424836
  H           1.79791819923842      1.38622441406979     -4.47429488222209
  H           2.19931530711722     -1.59540771666331     -3.91105708670893
  H          -0.37967316558183     -1.13279898120403     -3.78536333647240
  H           0.05595152868106      0.44399006276768     -3.05927143806839
  O           3.34046798758566      1.72345234201697     -1.73816584832176
  O           1.19455692716622      1.69186158612357     -1.90908852990752
  C           2.39076297118175     -3.33803138981018     -0.76888944164415
  H           0.49921756129598     -2.67932453254245      0.01694102140435
  H           1.90744858429089     -1.95113194582058      0.81719830034965
  H           1.97181268854464     -3.67366185698360     -1.71397081267584
  H           2.46979312816219     -4.19322008794080     -0.10344079195257
  H           3.38797817554456     -2.94456823013061     -0.94995530483212
  F           4.14277898596956     -0.86788453754788     -5.19326719534023
  H           4.31617468813400      1.01818009974595     -4.57278931709835
  H           3.54958132588153      0.76179869148261     -6.17127719294688
