35
Coordinates from ORCA-job P E -40.591902021070
  C          -1.69402777450763      0.27498021364117     -1.90141068907129
  C          -0.05670238687288     -1.62688858928975     -0.78457488223102
  C          -1.51736474419451     -1.92186840657695     -0.89008235470456
  C          -2.31105869557236     -1.02509825945748     -1.45415528621130
  C          -0.88129754828859      0.80272752261365     -0.70420730941151
  C           0.21553206638615     -0.18545491923100     -0.27041636233453
  H          -1.87981220280858     -2.87031687851490     -0.52176299693616
  H          -3.37251585469303     -1.17779585479520     -1.57279009791328
  N          -2.60576096879033      1.27760296171501     -2.42950447138905
  H           0.44655970712253     -2.34773640083403     -0.13776913250112
  H          -0.97058842862395      0.06459471224516     -2.69596907473868
  H           0.38008955691090     -1.71745922157551     -1.78484735778807
  H          -1.55604774492450      0.95455937292970      0.13705232372645
  H           0.21134203094727     -0.22506118225147      0.82573316476030
  H          -0.42797506397861      1.76135506300789     -0.95124059520767
  N           1.53755553016151      0.32170507027768     -0.61240052587603
  C          -3.29490604910441      0.93851221554674     -3.68153711068493
  C          -3.45707615638316      2.22572028727267     -4.49910776709862
  C          -2.57451666561642     -0.09044762516267     -4.55167168303000
  C          -3.53454307276210      1.78639002380797     -1.43876814596154
  H          -4.29957770132051      0.53405372623143     -3.45874399598755
  H          -2.47606925878733      2.61824653030411     -4.75323901777599
  H          -3.99190332825382      2.98850086552542     -3.94111978222584
  H          -4.00575138281459      2.02389299983575     -5.41588400964163
  H          -1.58659661115714      0.26579413593333     -4.83383785640648
  H          -3.15236627797447     -0.24066294323304     -5.46132626345716
  H          -2.48033868425260     -1.05037499437904     -4.05041987606055
  H          -2.99412147052132      2.38106661398400     -0.70452698967378
  H          -4.08447940477781      0.99172657743245     -0.91287188035548
  H          -4.26135821693762      2.43627546661570     -1.91980331548527
  C           1.84612450502988      0.50855834051486     -2.01514498257089
  H           2.24210709475323     -0.27485859542679     -0.18982358577487
  H           1.12045867978954      1.18818309399675     -2.45731962302449
  H           1.86354763660397     -0.41739716601454     -2.60992300231902
  H           2.83154888621326      0.96902524331091     -2.08255546463840
