35
Coordinates from ORCA-job TS E -40.513086368510
  C           0.13078627385213     -0.56209379329538     -0.60902053473856
  C           1.74328821998643     -2.25069552461963      1.03892480556255
  C           0.55184005157243     -2.66466411826903      0.51352242221515
  C          -0.24429130847518     -1.85823698085708     -0.30445782281646
  C           0.22858785227078      0.21179910409908      1.48871279085779
  C           1.11121369769727     -0.49639267902973      2.26962486328145
  H           0.10964620350283     -3.57891340683199      0.88900798461655
  H          -1.24502557468732     -2.19973130574940     -0.52328679602786
  N          -0.63106722924802      0.32513331866043     -1.32542101377647
  H           2.26889986894874     -2.89117838820033      1.73179575844149
  H           1.18560086619937     -0.34584012579981     -0.67331192083737
  H           2.36713324417105     -1.55438584857803      0.50724291085557
  H          -0.82222270404498      0.03090621949439      1.61711845076762
  H           0.71874072924296     -1.21519241111700      2.97373698960843
  H           0.50057424545459      1.17224000298585      1.09146631645055
  N           2.36749952433861     -0.01968310476294      2.65055867254829
  C          -2.07957341564877      0.32500780245632     -1.22565338491858
  C          -2.63661794628239      1.62925740390696     -0.64672924955033
  C          -2.70867055405935      0.02203988132104     -2.58909568565526
  C           0.00166229207301      1.52367549003076     -1.81434687608091
  H          -2.34705417382702     -0.48082899177983     -0.53706702987703
  H          -2.50270828383295      2.46007462457195     -1.33469769404671
  H          -2.14562257530409      1.86693918069179      0.29377882835433
  H          -3.70097182131624      1.51359109134008     -0.45761582673160
  H          -2.50365596174551      0.82082628773791     -3.29789444903757
  H          -3.78633557680661     -0.07994619580573     -2.49085204082655
  H          -2.30324125105065     -0.90474056689202     -2.98687784847439
  H           1.01278081173931      1.29238395950704     -2.14820027535179
  H           0.06061574800119      2.31303658688254     -1.05353177548548
  H          -0.55344127984498      1.90895974312365     -2.66857155745718
  C           3.07727795911054      0.91483827134638      1.81115204021229
  H           2.96991434424927     -0.75217299250708      3.00113746664263
  H           2.48550965477510      1.82320530858119      1.70212817327065
  H           3.30286132194293      0.52570700523475      0.80880945523109
  H           4.01606674704554      1.17507515212291      2.29791385277366
