24
Coordinates from ORCA-job TS E -31.806249295110
  C          -0.39925442910590      0.11526118940725     -1.24316299324972
  C           1.09104174690045     -1.79374590872258      0.31527952561332
  C          -0.21587801014619     -1.97896149912956     -0.02809596836860
  C          -0.95362898492565     -1.04601761799371     -0.77528195415264
  C           0.14238114361994      0.90940850405677      0.94115218190212
  C           0.92238270410159     -0.00370563846801      1.58378659269771
  H          -0.77611675099978     -2.76652820344813      0.45845665632165
  H          -2.02256161664381     -1.18468285135374     -0.83202237004270
  N          -1.08960297313765      1.09870198732800     -1.90647547769090
  H           1.57850095906449     -2.50419292482503      0.96221164706752
  H           0.66780526320837      0.18219438775695     -1.38151562614937
  H           1.75369814406992     -1.23524953173799     -0.32130764798463
  H          -0.91359419610331      0.95752395309764      1.12700575950857
  H           0.49501130586369     -0.62426663853570      2.35632334381372
  H           0.58714695524332      1.74729146855816      0.43262519756598
  C           2.39532830958716      0.25660935354911      1.73237456771981
  C          -2.51449333676012      1.25775539355421     -1.73705237470412
  H          -0.58679184445173      1.96590885512079     -2.01584070154699
  H          -2.80096113584567      1.38320463946719     -0.68607856542948
  H          -3.02889163818261      0.38206582210723     -2.13350478376416
  H          -2.84251580770535      2.13024295948088     -2.29778228723354
  F           3.08759243017119     -0.85581756150732      2.14575006189552
  H           2.56819728532528      1.01709056216417      2.50768842237079
  H           2.85520447685235      0.58990930007342      0.79546679384013
