17
Coordinates from ORCA-job NEB_product E -37.554367469540
  C           2.61469130483376      1.00530513735956     -1.36795086999094
  C           1.63853097314113     -0.02197211719577     -2.05232333029879
  N           2.45934093388411      0.98152591972294      0.09825088654620
  H           3.62512362574322      0.62479418412999     -1.57775420553161
  O           1.52070126203933     -1.17407119390646     -1.44184064548673
  C           2.48903116257105      2.40850591335557     -1.98710608606100
  C           1.33858163591009      3.23453024945792     -1.48004204086597
  C           0.08511672009033      3.03150329248191     -1.83747203642225
  O           1.10358426418259      0.25344559832585     -3.08126710274499
  F           3.67843268181889      3.06509730020615     -1.74778616563325
  H           2.42067528827570      2.27811732707406     -3.07605314316332
  H           1.62177300142640      4.02499951785460     -0.80194451345984
  H          -0.19611760957683      2.24788477313998     -2.52098443829207
  H          -0.70721766980342      3.64866202140415     -1.45342426303026
  O           2.63923583835994     -0.11586318369243      0.60933846388094
  O           2.15768702546350      1.97362559964334      0.69118021573182
  H           1.98512956164019     -1.20849033936136     -0.56742072517794
