17
Coordinates from ORCA-job NEB_reactant E -37.537680945620
  C           2.02453138884487      0.20021946808485     -0.18873079154952
  C           1.59167517171795      0.11965693665970     -1.48087090877194
  N           1.65800552870212      1.09448738000270      0.82247461122246
  H           2.73826399252917     -0.53417625533175      0.15673842104068
  O           1.92624260312022     -0.95362293686413     -2.21408053514531
  C           2.46771713069900      3.84323002159309     -3.11114311022844
  C           2.16653239018567      2.98808256423978     -2.15192568336960
  C           0.82004448405258      2.35019809958423     -2.02995534631691
  O           0.87997923007312      0.93394265977519     -2.23214304715777
  F           3.67316229221081      4.41378687125069     -3.19128716592917
  H           1.80365009040931      4.18085456320508     -3.89400918499566
  H           2.91432279013129      2.72681499855337     -1.41698920040420
  H           0.15207344678750      2.69251728765477     -2.82167122976375
  H           0.38233455012983      2.57297380075737     -1.04821552526862
  O           2.36951671147435      1.12194505704110      1.80985010582674
  O           0.64022948656403      1.76267935491710      0.69934988814318
  H           2.33611871236816     -1.64918987112314     -1.68359129733216
