18
Coordinates from ORCA-job NEB_reactant E -40.021579739540
  C           1.57887518817977      0.02599322891446     -0.09313464908933
  C           1.53608771440688      0.12975961515098     -1.42472437296875
  O           1.88625721910587      1.05848326729217      0.74457200884540
  H           1.35618515604345     -0.92386034944404      0.36994770023977
  C           1.18915964481561     -1.00009196317217     -2.32891553404014
  C           3.89486467579859      3.76243170338478     -3.09002546544591
  C           2.69906321474744      3.28286869618536     -2.81226419458665
  C           2.44688593070195      2.34141181234723     -1.67647700672882
  O           1.79159029408179      1.20731142935216     -2.22326313835034
  I           4.25398405389575      5.10894137529434     -4.65855136763790
  H           4.77848657506789      3.52335442922589     -2.52217565822023
  H           1.83155903216104      3.52818917084452     -3.40690084649196
  H           1.80109871209185      2.82149276519638     -0.93079146380154
  H           3.38406511979603      2.04128732203726     -1.19456770296908
  H           1.88149828555022      0.75287584459789      1.65698881775768
  Br          0.62993130064591     -2.62462158770171     -1.46140448132760
  Br         -0.24682833633090     -0.43417088389110     -3.53029373514458
  Br          2.75943621924086     -1.41375587561443     -3.44321891004003
