23
Coordinates from ORCA-job NEB_reactant E -32.329330989370
  C           2.49061764339039     -1.58526257454455      0.17552105710897
  C           1.42277455841764     -2.32430510850828     -0.11933650598478
  Cl          3.65195171689785     -0.86975519547308     -0.89627596814279
  H           2.71932839410799     -1.37383207977665      1.20607373182956
  C           0.53560422888310     -2.80398679497752      1.00791062464468
  C           3.26856785184569     -4.15852351925042     -2.06446329470188
  C           2.82823306954181     -3.13477102849995     -2.77477329244933
  C           1.54028812365838     -2.40308870562107     -2.52718653308325
  O           0.90816584653946     -2.72610984670468     -1.30380105151616
  C           4.55274933111268     -4.87203616133471     -2.31808113428596
  H           2.68895243864999     -4.52512241654955     -1.22700138015527
  H           3.39486176693568     -2.75700918061225     -3.61481079871094
  H           0.80589993418196     -2.69124029283129     -3.29025543158117
  H           1.69937903156851     -1.32133125882103     -2.60656523525234
  C          -0.62707353107097     -1.83662461801041      1.22642632759514
  H           1.11595237801251     -2.90160012684942      1.92444715119797
  H           0.14230485213670     -3.78295007253606      0.73164342165600
  H          -0.25426918915749     -0.85438556080711      1.50600552710846
  H          -1.27704667361634     -2.20184710828585      2.01762079310125
  H          -1.20963589737827     -1.74008427062032      0.31421921012352
  H           5.20258218328249     -4.79255332587992     -1.44683079363667
  H           5.06799487576018     -4.45433021031331     -3.17932110894726
  H           4.36641706630004     -5.93095054319256     -2.49516531591774
