36
Coordinates from ORCA-job P E -40.332554780100
  C          -1.77527097501154      0.29329375303712     -2.47868467356233
  C          -0.14329572589702     -1.61284361483362     -1.31922238026040
  C          -1.58933793551919     -1.93941141900167     -1.51638788256660
  C          -2.37315430774082     -1.01494780988227     -2.04796868280697
  C          -0.85719879273648      0.84959715164376     -1.37263450671975
  C          -0.07440626785499     -0.24502725640108     -0.60692574984695
  H          -1.96126080567801     -2.90108151158350     -1.19765154407811
  H          -3.43012800695166     -1.16990895295446     -2.20352021143138
  C          -2.85718316334967      1.29979104381979     -2.87990306957148
  H           0.36058219744201     -2.35526589658882     -0.70179368494993
  H          -1.15472149028495      0.09263702732864     -3.36416702765015
  H           0.35023475818736     -1.58413378806988     -2.28845366956406
  H          -1.47464712712573      1.39912872555868     -0.65842155617615
  H          -0.61734269192284     -0.42112488661246      0.32900253715807
  H          -0.16349776151655      1.56393495622523     -1.81384812360476
  N           1.28188648092220      0.09907341080584     -0.18237540753882
  C          -2.29368194235948      2.58239133047665     -3.48084021987705
  H          -3.46279642499030      1.54353345210639     -2.00346100957415
  H          -3.51342180954690      0.82629892996336     -3.61480110748246
  H          -1.70863658275302      3.13378145885019     -2.74926560468794
  H          -3.10193883562730      3.22583184598722     -3.82153859235600
  H          -1.65562781199155      2.35569241111978     -4.33296223099963
  C           2.19925317307287      0.74639497971145     -1.12473457139958
  C           3.63556259646604      0.62253671701680     -0.59453182251863
  C           2.18160656028334      0.14453784799623     -2.52818948617260
  C           1.26365852427335      0.82260278435779      1.07608433557934
  H           1.96191893405294      1.82647672832112     -1.21230593216074
  H           3.81325844371643     -0.39886902075202     -0.26880663266962
  H           3.82829808665583      1.29591842543542      0.23520205850537
  H           4.34113346613945      0.86479130084875     -1.38532592859199
  H           2.46895311959662     -0.90255896374970     -2.48908515125629
  H           2.90471517410116      0.67533021270697     -3.14516144551604
  H           1.21230670197025      0.23756623334578     -3.00520913468548
  H           0.59501867369610      0.32256734131394      1.77422670159936
  H           0.93239405572273      1.86738885471648      0.96321739387128
  H           2.25620751255932      0.82257619773610      1.51896401356263
