36
Coordinates from ORCA-job TS E -40.245444835010
  C          -1.84963627822847     -0.14652498787080     -0.91949219842474
  C          -0.72322857380150     -2.48492907900369      0.37275221295851
  C          -2.05251222974317     -2.30227995745056      0.20132327675023
  C          -2.61736718089979     -1.21307173190142     -0.48755402672409
  C          -1.16092017263774      0.64416816982349      0.84040593380598
  C          -0.23851489989599     -0.17317010887560      1.45921484993309
  H          -2.73578601592155     -2.96811015968970      0.71512299018131
  H          -3.69092991797153     -1.08810294840514     -0.43727459130544
  C          -2.52332239237865      1.00233154824031     -1.63512933814735
  H          -0.35258581413850     -3.28665414215225      0.99046079557335
  H          -0.85233956544196     -0.36099386374029     -1.27895032580835
  H           0.00328097750012     -1.98954460074248     -0.24167568494548
  H          -2.12426023564474      0.71246466626573      1.31639998123522
  H          -0.56206062621631     -0.83405859648438      2.24655183863287
  H          -0.82904601710659      1.55884259354181      0.38187636452017
  N           1.11745779497538     -0.14252030549647      1.28502331581421
  C          -1.54665580100744      1.93696370955618     -2.34023109770862
  H          -3.13476210910802      1.57153870988532     -0.93056669769152
  H          -3.20464812970067      0.58709160836865     -2.38429031033120
  H          -0.88772026839467      2.43291646703686     -1.63032123209981
  H          -2.08683380427573      2.70632287350292     -2.88818099388393
  H          -0.93296162237742      1.38210620992067     -3.04745733418425
  C           1.74653364926703      0.56615337547253      0.18673723452908
  C           2.55713864682982      1.75720230372103      0.71099841774279
  C           2.62048163797097     -0.34441754603520     -0.68050081313192
  C           1.92485531135443     -1.05685881259070      2.05011341683245
  H           0.94480627147012      0.95189556164625     -0.44576386300987
  H           3.40151365886350      1.42280824481679      1.30878789812226
  H           1.92744179743070      2.39247739832549      1.32907782632473
  H           2.93861138465394      2.34473285406387     -0.12007234085964
  H           3.50040988549536     -0.68547376362127     -0.14125680923344
  H           2.95155197398068      0.20348629342977     -1.55935331098952
  H           2.05671262656964     -1.21313662372102     -1.01279454505878
  H           1.48284241610110     -1.19879745696077      3.03544573700800
  H           2.92481383628000     -0.64694162343137      2.18323765522824
  H           2.00763978614762     -2.03791627944452      1.56733576834547
