23
Coordinates from ORCA-job NEB_reactant E -44.631425101760
  C           2.51862508420488      1.55524825564881      0.27210008532321
  C           1.44919692353158      2.20771641186654      0.71472067437711
  F           3.35606256753087      0.80136888592500      1.02939486915498
  H           2.82681850139573      1.57215458759122     -0.75941455167713
  C           0.58644165469405      2.97803169841771     -0.25075590303345
  C           3.33550435567420      3.38662460964134      2.99654820340896
  C           2.91177211441801      2.20794585244842      3.42442784849316
  C           1.60101144122060      1.60156792736388      3.02503319204764
  O           0.94089469728598      2.27345009325404      1.97682725932070
  C           4.63364002054733      4.01759597117842      3.33585819129166
  H           2.73287234213057      3.98687982505489      2.32845568160092
  H           3.50611163308261      1.60268371797957      4.09177731090410
  H           0.90887186342032      1.65677144416074      3.87349504936291
  H           1.75186900158391      0.54266483547386      2.78102930614212
  C          -0.62781173301191      2.14984105011128     -0.67148988846757
  H           1.17014857358308      3.25620340281494     -1.12716264288421
  H           0.24526939015711      3.88473765681690      0.25025220965965
  H          -0.31067984691042      1.24444282430030     -1.18291095711228
  H          -1.26020546418951      2.72551094672303     -1.34212661820759
  H          -1.21077608491301      1.87044237604488      0.20192513377003
  Cl          4.33984264748020      5.62620086072099      4.06441018559175
  Cl          5.61890076111179      3.07655622754264      4.46027834183817
  Cl          5.57691955597201      4.26046053892059      1.83372701909516
