23
Coordinates from ORCA-job NEB_product E -44.638352999200
  C           2.41567040323631      2.15536668795383      1.16372776299096
  C           1.02000846042825      2.73056051112221      0.80958407886615
  F           2.34962487177567      0.80779403737328      0.86704124668172
  H           3.20120820968278      2.56550778884605      0.51868131395398
  C           0.87804624287537      3.12250098373646     -0.63243189129429
  C           2.74758035262362      2.34475803150947      2.65325707767935
  C           3.65990185982751      1.25953151123691      3.15714895415530
  C           3.35934566467322      0.48323797956022      4.17924440123746
  O           0.14690837662592      2.77976985712230      1.63032297902132
  C           3.38037628818360      3.71635984290141      2.87667495896872
  H           1.80278203492797      2.31762824967754      3.21116037141383
  H           4.58649173499350      1.14160726568969      2.61484510243318
  H           2.43376133062592      0.58602777961384      4.72087945071652
  H           4.02776611484196     -0.29067331415349      4.51306897817666
  C          -0.52939703730045      3.59423351509606     -0.96898573241971
  H           1.15588728637153      2.25402954361606     -1.23676379834014
  H           1.60937464141691      3.90860994685528     -0.83974839041935
  H          -1.24905283674550      2.80711379869096     -0.76086110581846
  H          -0.59775498271786      3.86624714068254     -2.01856835680204
  H          -0.78845865443123      4.45840841896950     -0.36298120270782
  Cl          2.34796129753885      5.01159689340288      2.21714643173868
  Cl          3.60091638765079      4.00410866635553      4.61360804565155
  Cl          4.96895195289536      3.84357486414148      2.08524932411642
