17
Coordinates from ORCA-job NEB_reactant E -33.971044204480
  C           2.04891499548644      0.00466006916446     -0.19120375791942
  C           1.43237299695441     -0.36803118940100     -1.30960857408595
  Br          2.87531479539182      1.66386099376885      0.15213857747895
  H           2.08314699711694     -0.67767538418507      0.64005742051410
  F           0.86891877582611     -1.59562764339946     -1.27753944730281
  C           3.93373155950033      0.71994749147216     -4.49065245572987
  C           3.39146445216487      0.79222415048977     -3.28703612075643
  C           1.97882687426880      1.22157199718923     -3.03824281560899
  O           1.18030016213765      0.16784861341255     -2.49782578218685
  C           5.34025140127972      0.29400616053282     -4.75855664962852
  H           3.37726954272204      0.98383264103538     -5.37916661475372
  H           3.97308275661258      0.52031424182120     -2.41755900134072
  H           1.47785342965366      1.46472831583785     -3.97776434231364
  H           1.95102684238396      2.09823059276402     -2.38225115497785
  F           5.99860796791710     -0.06590195729623     -3.61279892416705
  H           5.91491932775407      1.11085600451170     -5.21342709588541
  H           5.36149712282950     -0.57704509771822     -5.42556326133583
