17
Coordinates from ORCA-job NEB_product E -33.990252363270
  C           3.07505081682087     -0.42642530858742     -1.83219915030482
  C           1.60015840912137     -0.35876931669134     -1.56924305516677
  Br          3.98545543427412      0.31902770508370     -0.28122950539198
  H           3.37815497914603     -1.47607091010847     -1.90480413234113
  F           0.94575247723824     -1.11875589192420     -2.50179593106141
  C           3.39089489500087      0.30617648731434     -3.15492484042457
  C           3.16277677865177      1.78667180666062     -3.01329640813367
  C           2.12951826354582      2.41858820613185     -3.53425231392573
  O           0.98727509285676      0.22026272917639     -0.75387245860199
  C           4.81084178604251      0.01070140061018     -3.65025949281348
  H           2.70757615062386     -0.10233414100027     -3.91045079275573
  H           3.91058188201399      2.31183302815656     -2.43595186445195
  H           1.37508990537548      1.90680325397968     -4.11082077311170
  H           1.99354015205536      3.47746111809669     -3.40384513657253
  F           5.75948637084625      0.53750583226672     -2.82179089951826
  H           4.95980776656394      0.46782240807927     -4.63433266447467
  H           4.99833883982278     -1.06779840724429     -3.70643058094961
