18
Coordinates from ORCA-job NEB E -29.197175384620
  C           0.19213915046563      1.06080821583413     -0.56050854562770
  C          -0.97193431493060      0.63915421235417      0.11250613312100
  N           0.43243478270415      0.68908224539776     -1.88382920338046
  H           0.63856807482400      2.00519468685614     -0.26989726769559
  N          -1.24770260735927      1.17537642750489      1.37388347401988
  C           1.34571573515222     -0.29512176261922      0.42888778075562
  C           0.78899918441378     -1.50525945097952      0.04088692539172
  C          -0.52459933445921     -1.77404873789537      0.47745282942375
  O          -1.48333578996962     -0.50653964529003     -0.18094904088560
  Br          3.09532896555507      0.13698834152777     -0.18951407285336
  H           1.18619150821987      0.08742081611980      1.42935419645000
  H           1.14383581798385     -1.96691692500552     -0.86836537371204
  H          -0.74712060130016     -1.58741209688474      1.52241407691827
  H          -1.01629823840006     -2.64921918774898      0.07710297763825
  H           0.64346832283321      1.44236834942773     -2.51711236966007
  H          -0.25160588784590      0.03719179946057     -2.24058784884250
  H          -2.11139766781590      0.84232558652652      1.77485414854252
  H          -1.11268710007107      2.16860712541389      1.47342118039632
