18
Coordinates from ORCA-job NEB_product E -29.251140994350
  C           2.85030030929880     -0.49465356295189      0.85684585758928
  C           1.38058561931397     -0.36363670540208      1.30473343557900
  N           2.96412355910449     -0.72379081281440     -0.56529591912263
  H           3.40184506943487      0.41342130606073      1.12630414466443
  N           1.20054253198917      0.24652146139279      2.49533349031943
  C           3.44374680214351     -1.68217289237388      1.63523447699051
  C           2.85651719355629     -2.98906461686502      1.23924915050978
  C           2.19724518626828     -3.77019742624735      2.07449445529708
  O           0.47109083208088     -0.79555737875187      0.63561110818685
  Br          5.39123612442263     -1.73177805039523      1.29952909320682
  H           3.34848672432372     -1.51655604388439      2.71132620674145
  H           3.01152486586144     -3.26950511458686      0.20773968723045
  H           2.04641333477147     -3.50409315024266      3.10868592965117
  H           1.77464004792184     -4.70654555808045      1.75573094312096
  H           2.91341479131774      0.14724624953300     -1.07963739150876
  H           2.18409287247759     -1.30239239064052     -0.86840183436919
  H           0.26265352258876      0.36171105808603      2.84471527226389
  H           1.95914061312454      0.64274362816405      3.02070189364948
