19
Coordinates from ORCA-job NEB_product E -41.221440433920
  C           1.15372050058751     -1.56287097369083      0.01432800741168
  C           2.27342212698202     -1.72337244885201      1.05075360626956
  C           1.64544447592626     -0.52438745706504     -0.98439019239160
  H           0.27976466213309     -1.14946459940948      0.53347445368145
  C           3.10267678574274     -2.90069236271975      0.86150716437382
  C           0.75350743186480     -2.91180676800917     -0.63100758509851
  C          -0.68649139378365     -2.91033088168999     -1.09358748895653
  C          -1.72056748886016     -2.73524570309239     -0.29293365665669
  O           2.45048106181490     -0.94017717643336      1.94226311233236
  O           1.65926582919086     -3.15467127828456     -1.67565533047784
  H           0.85664870731101     -3.68639927095731      0.15253437994328
  H          -0.82470274752823     -3.08175258014270     -2.15149407279649
  H          -1.61082108044915     -2.57229534195826      0.76751245468350
  H          -2.72739960512725     -2.75236842150862     -0.66902762761365
  Br          1.65349456316319      1.23631432780666     -0.13344743194637
  Br          3.46668074592020     -0.88616904057222     -1.58448599228304
  Br          0.50514297729487     -0.39022454081014     -2.54501151733864
  N           3.75686680544335     -3.83233771084697      0.74944751132646
  H           1.48136564237362     -4.00804777176383     -2.08417979446278
