19
Coordinates from ORCA-job NEB_reactant E -41.237624233430
  C           1.27881493067908     -0.30351443795363     -0.43530071994981
  C           1.90915368502631     -1.47899328422418     -0.63899622283224
  C           1.96573468708572      1.00042128665609     -0.36471704167248
  H           0.20678381028632     -0.27655568226319     -0.31492821725362
  C           3.32863970543257     -1.53839931452646     -0.80835664217205
  C          -0.86583114442016     -4.98696579044057      0.30366099764060
  C          -0.40884438473629     -4.25781827945923     -0.70731970418519
  C          -0.06639935477847     -2.81144968375506     -0.57853496696942
  O           1.34872042826836     -2.69029109423331     -0.71444266217436
  O          -1.18515959405531     -6.28940719169175      0.25985862854515
  H          -1.05129456150042     -4.56980119081641      1.28395233061187
  H          -0.22136518049152     -4.70293168709109     -1.67417561113820
  H          -0.37827458342875     -2.42787701556641      0.40054558152815
  H          -0.55263289815806     -2.22483035418705     -1.37060765868320
  Br          0.67297586966395      2.42218942219114     -0.04528088968290
  Br          3.29599836678362      1.08131358866145      1.10266950112350
  Br          2.91831688100345      1.44586717788422     -2.04748612259122
  N           4.46068729608512     -1.59527803844418     -0.96047160132241
  H          -0.99982395874550     -6.65567843074040     -0.61526897882215
