21
Coordinates from ORCA-job NEB E -32.465067003470
  C          -0.41672272027618      0.74151803314518      1.44534249489559
  C          -1.76462161179039      0.74617376597471      1.11756510813035
  I           0.66325485726659      2.50430154184534      1.04007569552831
  H          -0.12650705642052      0.28579373651691      2.38035510368084
  O          -2.54586983452777     -0.14731887277409      1.79384349933348
  C           0.14823870724475     -0.62238801729495     -0.00778603205595
  C          -0.32424458186581      0.01970635956142     -1.14025304599800
  C          -1.71589115437586      0.20935284740428     -1.29055111060780
  O          -2.19158148776882      1.22121430801613      0.01093449209982
  C           1.61403949415955     -0.90411184080952      0.22790804864287
  H          -0.49640376052820     -1.38116024098402      0.42906298801407
  H           0.33053971774537      0.68691053915442     -1.67884917316571
  H          -2.35951611416134     -0.63692777985541     -1.06913427904066
  H          -2.05658164635715      0.80207998203972     -2.12777998766023
  H          -3.41029691378199     -0.19697067146913      1.36305478711566
  C           2.56812858536988     -0.30037772968630     -0.79618338244506
  H           1.73514796221427     -1.99196911900885      0.22005092391994
  H           1.90510227793660     -0.56689946047202      1.22539397295710
  H           2.33265243487986     -0.65688056628500     -1.79601627870038
  H           3.58688706467833     -0.59690964639101     -0.55757392455384
  H           2.52424578035884      0.78486283137221     -0.78945990009041
