21
Coordinates from ORCA-job NEB_reactant E -32.486895221210
  C           2.13613297325579     -0.71692859622687      0.15054401690558
  C           1.36892727952033     -1.70485563411940     -0.31872064418308
  I           3.39257794317789      0.64019493867939     -0.84705132319258
  H           2.13313467916724     -0.52607719979846      1.20991046422493
  O           0.60930761042817     -2.42624287569797      0.55428950752306
  C           3.83854875821498     -3.14126952152094     -1.67054246191530
  C           3.37579992049667     -2.25537557065681     -2.53663022425769
  C           1.93144313174868     -1.86196400426959     -2.65738970766840
  O           1.13094686553505     -2.19850701811886     -1.53896422248132
  C           5.26669134185357     -3.55182630903786     -1.49686906016346
  H           3.14900529026682     -3.63728380751102     -0.99751059604509
  H           4.02475999608693     -1.74871595706011     -3.23389542726633
  H           1.46269078125369     -2.41433475502578     -3.48048230789690
  H           1.84454127721074     -0.79282509630941     -2.88398472459494
  H           0.66897640804721     -2.06640224538033      1.44640467692268
  C           6.25985007249665     -2.81889965192534     -2.38813084170480
  H           5.33437258869811     -4.62929414200645     -1.67955688259673
  H           5.53768532352307     -3.39453209999147     -0.44770441362686
  H           6.04758235916249     -3.00609439977905     -3.43789719066029
  H           7.27000626538397     -3.16229849240544     -2.17754425267693
  H           6.21751913447194     -1.74756756183822     -2.20707438464556
