23
Coordinates from ORCA-job NEB E -53.592053147250
  C           0.49006331542640      0.11600121217590      0.86490532893974
  C          -0.87305017031004      0.23834929354933      1.19014084075223
  C           1.31546504634748      1.39042874724313      0.77193261978063
  H           1.04714971621084     -0.62767592686642      1.43135545306082
  C          -1.53159163812688     -0.93742775245613      1.88964531088265
  C           0.38422325494090     -0.59463832491611     -0.90518217591151
  C          -0.46068680681023      0.32565881698442     -1.53320965289521
  C          -1.78984557152462      0.51500289168159     -1.02139875806734
  O          -1.64344801976114      1.00927974673351      0.46152884067302
  C           1.77633442229205     -0.80257414399563     -1.46219301020560
  H          -0.04527159312126     -1.54494274191767     -0.60110887824723
  H          -0.01721571563433      1.11550625363674     -2.12085723240365
  H          -2.38310327395071     -0.39257210919614     -0.91432934596116
  H          -2.35386035052288      1.31530597567986     -1.48784138649292
  F           2.62125684585018      1.09405787963561      0.57794730348102
  F           0.95213201344264      2.22583982944237     -0.21336555130243
  H           1.24952468829696      1.94848813469795      1.72201094799283
  F          -2.72332999782198     -0.63158684302087      2.39655874746333
  F          -1.73415899724973     -1.99851752471494      1.06216053911985
  F          -0.77167576342565     -1.40768741259152      2.89149713453098
  F           2.24405713203886      0.30862583906010     -2.10290876634653
  H           1.74276016217997     -1.60459122286641     -2.21061032351812
  H           2.50427130123318     -1.06033061797865     -0.68667798532541
