23
Coordinates from ORCA-job NEB_reactant E -53.623617142180
  C           1.45546041163701     -0.06826894717779     -0.20026632094608
  C           1.61075423733329     -1.34749209326036     -0.56760565805384
  C           1.82691028287748      1.18451588719681     -0.93167902610955
  H           0.99658764559054      0.11073449817999      0.75802573624124
  C           1.12647739744099     -2.43799367704755      0.38988165997191
  C           2.76764179752662     -2.25323318094904     -5.02516276337896
  C           3.08990997756104     -2.29049325749519     -3.74379657359791
  C           2.65778000192768     -1.26257493789867     -2.74787055576647
  O           2.10938855873260     -1.96725716130580     -1.63071231062034
  C           3.21545693870721     -3.25502903635504     -6.03907539065859
  H           2.15375477246036     -1.46142589374094     -5.43178496600266
  H           3.69741199748162     -3.09143818586389     -3.34884997289793
  H           1.90823209720779     -0.59560991853704     -3.18207069190407
  H           3.52686548216201     -0.68031126338007     -2.41929549968238
  F           3.15477651339714      1.25413359532245     -1.22080279843780
  F           1.18809652072351      1.30429700809552     -2.12854618107268
  H           1.57687630187360      2.07812866785735     -0.34234753063723
  F           0.15781522723060     -3.17341410857909     -0.16526498957969
  F           2.11697573015739     -3.27235217307590      0.71668441325059
  F           0.63358477637701     -1.95800869685818      1.53705776323944
  F           4.02805697254413     -4.21444500342725     -5.49622130533981
  H           3.78756445026741     -2.76982422328174     -6.84018595727327
  H           2.35462190878295     -3.77663789841856     -6.47651108074392
