20
Coordinates from ORCA-job NEB E -32.751774728590
  C          -0.95187582465123     -1.13536309382400      1.83637962527624
  C          -1.66492492647005     -1.08567587409821      0.71205942504726
  N          -0.53306616891566     -0.01013520587629      2.52453328255925
  H          -0.62954324900720     -2.08172530829219      2.23941648219237
  I          -2.06454522980320     -2.91170347865596     -0.33359387189318
  C           0.74488595001019     -0.16495073693605     -1.46633399965994
  C          -0.13901367777453      0.69197746645065     -0.96491019590474
  C          -1.60927572839542      0.44956564767964     -1.07183889100987
  O          -2.18047421060514      0.04072998701119      0.17918173122485
  O           2.08904908447505     -0.15895145529365     -1.44545045670179
  H           0.41185611316692     -1.03126158931942     -2.02677151722210
  H           0.14387460113027      1.55975848760662     -0.38923731909731
  H          -1.81816858604961     -0.32163901737078     -1.82449013876867
  H          -2.15326793827171      1.36163757524398     -1.32710900077038
  H          -0.47191878576235     -0.11771369047324      3.52528742112248
  H          -1.01062972598367      0.83496205171911      2.24351536732160
  C           2.80518647565856      0.83333011036000     -0.73725745041478
  H           3.46066926144754      1.35009872976175     -1.44166128072906
  H           3.41497619504388      0.33784770996753      0.02156390013963
  H           2.15620637075736      1.55921168433932     -0.25328311271183
