20
Coordinates from ORCA-job NEB_reactant E -32.753195830660
  C           1.44385241694034      0.02640274560674      0.25103302713089
  C           1.96989842988810     -0.12561616248974     -0.96463358515253
  N           0.31276628507856      0.78116643087774      0.50409116973481
  H           1.92662612034009     -0.40339410406459      1.11391136052692
  I           3.80713783834279     -1.21659194902713     -1.14118396358176
  C           3.57199758198646      1.40305582075389     -4.28967112244319
  C           3.25671256697212      1.67034705120735     -3.02553983546710
  C           1.83978807755536      1.63778970683314     -2.54927781585731
  O           1.41956327943502      0.33063447959621     -2.10766682700852
  O           4.78821842631913      1.35191983956518     -4.86082889312801
  H           2.80610299117890      1.19985560346186     -5.02768829253780
  H           4.01099678332509      1.86807011165551     -2.28029899554517
  H           1.14867692950560      1.86575745939997     -3.36374580603564
  H           1.69272102879526      2.34966130576453     -1.72754109381859
  H          -0.23928161714412      0.47593565138329      1.29041813820248
  H          -0.24114898818199      0.97914452535331     -0.31783995134031
  C           5.91165610388328      1.51570123003366     -4.02342586728000
  H           6.78368179860005      1.39033941283599     -4.66215575356503
  H           5.92507382871971      0.76070351870948     -3.23211884702687
  H           5.92726011846025      2.51351732254360     -3.57423704580725
