20
Coordinates from ORCA-job NEB_product E -32.754943734740
  C           2.94710195842630      0.17547865661463     -1.38416281328538
  C           1.57575873541988     -0.43353656494715     -1.26056165460951
  N           3.16595180589126      1.17749771106554     -0.36834472800330
  H           3.71071459110715     -0.60440109131711     -1.29202369913481
  I           1.36357687260302     -2.33712969906523     -2.29651360269397
  C           3.09177847001399      0.77470645361778     -2.83321823316474
  C           2.27206674044135      2.02961119779179     -2.94655547312329
  C           1.06921821923890      2.05690681405349     -3.48856822836032
  O           0.64802154124147      0.01927513725388     -0.68460854894296
  O           4.43766920032319      0.89289431639846     -3.20319911090346
  H           2.70587019871110      0.02524397385012     -3.53506177034349
  H           2.71732608339405      2.92399599079904     -2.53664711120617
  H           0.60999417409786      1.17524583825552     -3.90581275894238
  H           0.49046052586835      2.96300681295118     -3.53912003771061
  H           3.18544862806052      0.75948264947685      0.55562446990720
  H           2.42380193497850      1.86969848866020     -0.38408123011029
  C           5.20598802204239      1.90253628894294     -2.57486992003527
  H           6.24375936462517      1.64482647271074     -2.77940767496929
  H           5.03487766086068      1.92306660259960     -1.49702547554281
  H           4.99521527265485      2.88739395028771     -3.00364239882517
