20
Coordinates from ORCA-job NEB E -25.073923919290
  C          -0.05687904920105      0.31333951296624     -1.00503536261010
  C          -1.26023854710772      0.97838902314961     -0.77083639353510
  C          -0.02416884774625     -1.19706272599861     -0.91447072606757
  H           0.55341273538030      0.70539464193759     -1.81462191850953
  H          -1.37769672090959      1.99919867167988     -1.15019649912838
  C           0.82644302971131      0.94879039328697      0.61220391482424
  C          -0.02148289257446      0.51812514097988      1.62371069027827
  C          -1.34067058779607      1.06771199715324      1.64465793740536
  O          -2.00022433142568      0.63085742361923      0.24739340748648
  H           1.80573661993078      0.50188210239368      0.53158916883762
  H           0.82510245949456      2.00308999493046      0.36838519848350
  H           0.11887402824904     -0.47003054896666      2.03791605737498
  H          -1.40357471417464      2.15313514981520      1.59191762549537
  H          -2.03039578347739      0.65426729091708      2.37134529282427
  C           1.37084267739374     -1.80871810345924     -0.88184228121735
  H          -0.53738448372262     -1.56568232782185     -1.80912525866298
  H          -0.60430195808775     -1.52282639876440     -0.05097852068815
  H           1.98565401780613     -1.40260563289162     -1.68279148317248
  H           1.30452412624597     -2.88605968496113     -1.01596033772757
  H           1.86642822201139     -1.62119591996556      0.06673948830909
