20
Coordinates from ORCA-job NEB_reactant E -25.103498237210
  C           1.64619847569967      0.16023589137210      0.19835130103920
  C           1.10219478329281      1.35238586563130      0.41329477122423
  C           2.28650216050417     -0.85169139774248      1.10106692694925
  H           1.64296380213172     -0.15227669456030     -0.83849567007453
  H           0.70018469241800      1.89433957595695     -0.43585615737750
  C           3.53754146169794      1.19699269267426      3.83553294466102
  C           2.83252581063106      1.85250536934452      2.93349329057138
  C           1.33947834193299      1.76466472753783      2.79115092666186
  O           0.87723940916642      2.12687141699270      1.50808514605077
  H           4.60418209144224      1.31286582787544      3.91669768279920
  H           3.07570461683331      0.52082171711412      4.53713800740965
  H           3.30707837074315      2.52934082456009      2.23614413871536
  H           0.87879613267646      2.51145145423565      3.45171971114068
  H           0.96163868922801      0.77735146591858      3.08536387418435
  C           3.69437809344946     -1.19072258842127      0.60969229740786
  H           1.67871910980657     -1.76301710377983      1.08295724481174
  H           2.35032307951884     -0.51200517286602      2.13061348310406
  H           3.66627906547355     -1.55404393359724     -0.41528959914638
  H           4.14102120384070     -1.95871050426495      1.23719099415910
  H           4.32655060951294     -0.30615943398145      0.64404868570869
