20
Coordinates from ORCA-job NEB_product E -25.120085958530
  C           2.27184163010414      1.22622219019352      0.82774967889214
  C           1.52706199034487      2.29101688763679      0.06290117029676
  C           1.74195176281376     -0.16091432956808      0.43796258150332
  H           3.31225209067824      1.30042919203237      0.48046822207157
  H           1.40622007221342      2.04991979011850     -1.01344060885058
  C           2.22194926015049      1.50944560515017      2.33453534136255
  C           3.35561113053663      0.90963333092957      3.09982500344020
  C           3.22562052431733      0.24088609630067      4.23072869941734
  O           1.10267023242028      3.31696806253323      0.51273817261824
  H           2.25947002386138      2.59727661424098      2.46071416136925
  H           1.26899292910920      1.16731784004317      2.74177272640708
  H           4.33955817345836      1.08126040455832      2.68086948100986
  H           2.25954659381161      0.05956059637440      4.67331439074386
  H           4.07417781114740     -0.15170786254771      4.76458565575862
  C           2.68421839048218     -1.29011454927501      0.83583017313392
  H           1.59296327239779     -0.19134467434385     -0.64508462115584
  H           0.76906185428584     -0.31414932431119      0.90942072646952
  H           3.65191386375916     -1.16828969549742      0.35378302410259
  H           2.26845378757480     -2.24732346812988      0.52997662851391
  H           2.83566460653313     -1.30639270643856      1.91124939289571
