27
Coordinates from ORCA-job P E -36.872791690310
  C          -1.04603344609478      0.47414815744112     -2.38218899341690
  C          -0.57705045723394     -1.66533960909029     -0.34917471948659
  C          -1.33357740573183     -1.87597290888614     -1.62287533535036
  C          -1.54824519944953     -0.93392286776081     -2.52435311909382
  C          -0.74465794711754      0.77770726082623     -0.90797871588735
  C           0.14154509892152     -0.31576165169566     -0.30651367010607
  H          -1.71061581942715     -2.87788849020750     -1.77705360920026
  H          -2.08769818233680     -1.15102963769626     -3.43587352371179
  C          -2.03192328001272      1.47766729918936     -2.92170949662785
  H          -1.26409211176915     -1.74055052494688      0.49900026988682
  H          -0.11069272975712      0.55658151763329     -2.95185885528747
  H           0.17239327079310     -2.45225703664178     -0.23926260993110
  H          -1.67847098000778      0.82065636007221     -0.34516363348418
  H           0.36071125722790     -0.05907617641232      0.74585143923061
  H          -0.25423368833934      1.75198687063618     -0.82344994928578
  O           1.36009479738166     -0.45666004156935     -1.00824665222211
  C          -3.38178658169539      1.36700221139158     -2.60967025688737
  C          -4.29194280575778      2.29644558555175     -3.07845783245742
  C          -3.86376521738682      3.35329125659043     -3.86431184273600
  C          -2.52146485146316      3.47324647953104     -4.17879050740757
  C          -1.61258684765794      2.54065244490020     -3.70986939895023
  H          -3.71744785136526      0.54072044897740     -1.99887850636566
  H          -5.33892073211091      2.19665657980785     -2.83078987666406
  H          -4.57410853280816      4.07953279517303     -4.23124607056273
  H          -2.18078697831624      4.29446663903189     -4.79278557424063
  H          -0.56563902509672      2.63849510563356     -3.96262951987844
  H           1.77298624661187      0.40992193251987     -1.08888943987571
