22
Coordinates from ORCA-job NEB E -37.252633051080
  C           0.35461327293804      0.97964575759366      0.18366340766882
  C           0.74404214790924     -0.26930869935535      0.66914630616984
  O           1.00297930954636      1.51327341269381     -0.89732817176434
  H          -0.02067010443357      1.68710175079152      0.91710742035598
  O           0.33205862853933     -0.51244774797748      1.95247667344138
  C          -1.39920149522093      0.26048514483861     -0.78969150064347
  C          -1.31538148188740     -1.11967681210181     -0.80916914499647
  C          -0.10933727575842     -1.67695236900943     -1.27292847201505
  O           1.08466024624205     -1.24126014542272     -0.07951097262828
  Cl         -2.73390857793485      1.01110226832527      0.01742550362864
  H          -1.07442904835588      0.81974621503364     -1.65645589845078
  H          -1.90543654135828     -1.68037621633885     -0.09625350433942
  H           0.36877347902028     -1.19454869430095     -2.11544444581249
  H           0.00146961179071     -2.75144016419000     -1.25619962537594
  C           0.72793724781133      2.87560524535212     -1.13554094862358
  H          -0.33400849624603      3.04555765446213     -1.34237172127095
  H           1.31651568992842      3.15625304006499     -2.00681462909245
  H           1.02384493195912      3.49254797745316     -0.28079830967134
  C           0.46142933537325     -1.84820325013174      2.40377948706071
  H           1.48093179363598     -2.21001306673004      2.25001499348509
  H          -0.23131073224001     -2.51105631982628      1.88012735176956
  H           0.22442805874124     -1.82603498122426      3.46476620110455
