22
Coordinates from ORCA-job NEB_reactant E -37.279491759730
  C           1.30405548419086     -0.00249454802281     -0.25868979936054
  C           1.31240666734845     -1.33544098980844     -0.27393360853532
  O           1.27642878989612      0.74186106093837     -1.40005891891963
  H           1.28247227496868      0.51980546955601      0.68863855953061
  O           1.15625289579407     -2.02706192588933      0.90651875681201
  C          -1.15504293266671     -1.90335261392364     -3.66780398677121
  C          -0.74571493824926     -1.82542936721730     -2.41447731682080
  C           0.25761961182797     -2.76670717008252     -1.82052657731506
  O           1.44051977894611     -2.07887167381166     -1.41729881865394
  Cl         -2.29309572655963     -0.80996289209236     -4.34373728937658
  H          -0.82502290626969     -2.66284917301780     -4.36005070262857
  H          -1.09215098692864     -1.03690426091445     -1.76273722299410
  H           0.58749216493588     -3.50413264534516     -2.55520437332947
  H          -0.18483324434389     -3.28017729827880     -0.95493356180225
  C           1.49321701425515      2.12014900466896     -1.21678440116510
  H           1.36331686347511      2.58107770688137     -2.19411174259036
  H           2.50696670414927      2.32040646379001     -0.85355070712137
  H           0.77079611984372      2.54858672732917     -0.51329807464885
  C           2.15026964297832     -3.00986333100243      1.15560418694046
  H           1.79856183443413     -3.58585367731295      2.00890188872341
  H           3.10678070000959     -2.53598569020005      1.39672016642802
  H           2.28540418796440     -3.66699917624419      0.29291354359865
