23
Coordinates from ORCA-job NEB_product E -44.477061936160
  C           2.86275105538702     -0.97460800742835      1.27139053020688
  C           2.39268501843448      0.20947702477651      2.07436548770728
  C           2.05445291216771     -0.91121709072223     -0.04569222420161
  H           3.92427575862795     -0.87703543614280      1.03838305870843
  Cl          3.43546125938404      1.61902810560990      1.86005291374546
  C           2.61154502242700     -2.26541234543011      2.08438380333857
  C           2.53253502424315     -3.50443661041688      1.23814997398218
  C           1.41024927402429     -4.16428969493862      1.02375441018639
  O           1.39688331842556      0.29743020966681      2.71096425565969
  C           3.70791534792214     -2.44865005196529      3.13686423717451
  H           1.66292067024282     -2.13964825097620      2.61943417190944
  H           3.46792950997404     -3.84439411706157      0.81871132897586
  H           0.47189711350722     -3.84727860488103      1.44818602748644
  H           1.38367856981836     -5.04997827010975      0.41338874790751
  C           2.81323423440552     -1.49373567748788     -1.23010427783966
  H           1.82897021210681      0.13530535229415     -0.26321944274850
  H           1.10650812152422     -1.43164848594719      0.09191496090412
  H           3.75431867707708     -0.96899281683344     -1.37455811569091
  H           2.21904568698898     -1.38366488816923     -2.13367278770407
  H           3.02021790337439     -2.54873817719444     -1.08298665344698
  Cl          3.81967947714652     -1.03539249244924      4.21532683130632
  Cl          3.34921793686065     -3.88209615981914      4.12720922100484
  Cl          5.30332789593005     -2.68052351437396      2.38585354142779
