16
Coordinates from ORCA-job NEB_product E -29.244224454240
  C           0.67543347402546     -0.11500224020707     -1.81527408780166
  C           1.55665830834439     -0.86790599297882     -0.85688485037359
  H           1.30852378452972      0.59698004810570     -2.35412748887224
  H          -0.05026990162160      0.47097996466387     -1.24501787318969
  H           2.03265226945742     -0.20739267533446     -0.10669962872406
  C          -0.04409874706274     -1.04403952571723     -2.79076608180735
  C          -1.05149753625847     -1.91593645184376     -2.09315513965005
  C          -1.09204457151032     -3.22776252696412     -2.21987839101094
  O           1.76003231491400     -2.04606666313355     -0.87387056221463
  N          -0.81331624347779     -0.23005536383375     -3.77453722317589
  H           0.66245695650386     -1.65751669820318     -3.35601117663853
  H          -1.76526533427151     -1.38181352995145     -1.48038399768912
  H          -0.38372134912026     -3.76252356073677     -2.82938165257508
  H          -1.82564811487268     -3.82004375502586     -1.70200726378433
  O          -1.41504868955784      0.72542476832411     -3.34958740352914
  O          -0.80384662002163     -0.60452579716366     -4.91921717896372
