16
Coordinates from ORCA-job NEB_reactant E -29.232429788330
  C           1.92808232753564     -0.08890944578666      0.04994665403588
  C           1.09913199421490     -0.96390486854370     -0.49040598012703
  H           2.88479487595397      0.11773740642038     -0.39300701799690
  H           1.66804524194256      0.42945407556639      0.95238848908415
  H           0.12825406389529     -1.18596253633834     -0.05777973941746
  C          -1.31611877104736     -1.82246066573684     -3.99021030001524
  C          -0.59099654225489     -1.47919622958014     -2.93297605060890
  C           0.37864332820561     -2.37536279081983     -2.22971032099380
  O           1.42276313833573     -1.67175521228670     -1.61349856195246
  N          -2.24039974000173     -0.90207588463487     -4.58657075085722
  H          -1.28460095834749     -2.78134264594368     -4.48419921431199
  H          -0.69646683865895     -0.47758934689372     -2.53026514126503
  H           0.85227946994678     -3.06487989781600     -2.93385478487772
  H          -0.17914859148344     -2.97176321021914     -1.48684037837136
  O          -2.37408109949204      0.18992148119210     -4.07966251058230
  O          -2.83148189874456     -1.29251022857924     -5.56985439174261
