21
Coordinates from ORCA-job R E -28.010435577950
  C          -1.44512096936272     -0.20785133779113     -2.68074911444923
  C          -0.40112234215744     -2.78454456048957     -1.57481901951304
  C          -1.64026003140811     -2.56869054611677     -2.00854645080730
  C          -2.15707389221687     -1.32123076408905     -2.54093719508377
  C          -0.73970772050555      1.73513488936353      0.08381225281751
  C          -0.02583985363366      0.62269635244837      0.19974655271186
  H          -2.35766185982134     -3.37828606611940     -1.97427275137593
  H          -3.19701436290256     -1.32887333884865     -2.83931562472671
  Br         -2.17831405798380      1.38481919619247     -3.37072575354166
  H          -0.10630365096755     -3.74584526468431     -1.19067146729148
  H          -0.41227931658797     -0.10208270027209     -2.40265102818707
  H           0.35460344776050     -2.01804912854999     -1.57981613800169
  H          -1.69618778763717      1.82106839731889      0.56442414974840
  H          -0.39569120053604     -0.20923617433295      0.78608336640952
  H          -0.41390983303890      2.58313450893319     -0.48992323146154
  N           1.16729669126430      0.32735458143221     -0.44568255658937
  C           1.89421045239059      1.38430308402982     -1.11681366061381
  H           1.76761715421433     -0.28707731902793      0.08567823594237
  H           2.18477367395984      2.19865097795608     -0.44191342462409
  H           1.27135164368366      1.80077058287454     -1.91080757518171
  H           2.79100381548646      0.96264462977276     -1.56823956618127
