21
Coordinates from ORCA-job TS E -27.994759653450
  C          -1.30193446320482      0.39552254903085     -1.27333775354087
  C           0.09615852034587     -1.84761331475883     -0.21969933822923
  C          -1.23754842972280     -1.86613147721078     -0.44433535166986
  C          -1.94008750179939     -0.79422343033931     -1.03053683654091
  C          -0.69605683909719      1.04999998264932      0.64015737576660
  C           0.20691098587050      0.18943382263030      1.21645716542393
  H          -1.82902563159296     -2.67578463675401     -0.03820020151435
  H          -3.01948891912373     -0.82338921682173     -1.02006685345229
  Br         -2.32607531291033      1.85897530037250     -1.95174834918857
  H           0.57048532593930     -2.64416293854743      0.33000745727520
  H          -0.29158667195947      0.44423454236854     -1.64173226730717
  H           0.75691947844464     -1.19954590763640     -0.76431101889710
  H          -1.69792528593612      1.05264538618831      1.03314058461866
  H          -0.13289108808259     -0.55616445205403      1.91771710384387
  H          -0.35393886535158      1.99405632439264      0.25118466265135
  N           1.56958872960907      0.35693012287685      1.20703471484005
  C           2.24224938060080      1.20502209154115      0.25506172365643
  H           2.10149755095751     -0.45197326163286      1.48933301708033
  H           1.79602837912366      2.19845954083487      0.27045133997440
  H           2.19903461892201      0.81949126219195     -0.77110008655727
  H           3.28768603896764      1.29421771067811      0.54452291176679
