19
Coordinates from ORCA-job NEB_product E -36.449792759320
  C           2.66012347878713      0.91717509868724     -0.36631431969904
  C           1.38651224097054      0.49154799763753     -1.02022779565121
  C           2.57411384614250      0.67308035440156      1.13806799948915
  H           3.48785667860853      0.34571257830919     -0.79991070112678
  N           1.51395367583066      0.30803334886487     -2.55762915503957
  C           2.89614013814204      2.40466200595359     -0.74166756736087
  C           1.77421152337649      3.29788260906280     -0.32966908113965
  C           1.04560749776077      3.98365662431378     -1.19123057285534
  O           0.31472022233142      0.30067046417075     -0.55755209155783
  Cl          4.40926600907280      2.96660515640248      0.04811869978793
  H           3.08322398095025      2.48071051546508     -1.81625510198741
  H           1.59506213461970      3.36873657674665      0.73273329569603
  H           1.22090990566357      3.93526402668517     -2.25389429523647
  H           0.24106143166410      4.62049312532621     -0.86888506940369
  H           1.67298040273944      1.11991859221618      1.54865900972626
  H           3.44265564608470      1.09736886766150      1.63242205422244
  H           2.54452194118168     -0.39514346283635      1.33673062916081
  O           0.49370297723924      0.04979292761368     -3.13398136985359
  O           2.61177626883444      0.45063259331809     -3.04291456717117
