19
Coordinates from ORCA-job NEB_reactant E -36.446500693160
  C           1.73734275244927     -0.10144860927213      0.18447374717632
  C           1.68587647860140      0.72448331755555     -0.86195284887793
  C           1.01412769859099      0.10925539037040      1.46148861847628
  H           2.33996384876901     -0.99410442163648      0.08800700919493
  N           2.41877635118599      0.38525537900662     -2.08303710521413
  C           2.88544250045847      4.22143319644462     -2.30146822462612
  C           2.83539287659533      3.37888278271189     -1.28251834204688
  C           1.56393243468021      3.07499449094817     -0.54907505754300
  O           0.94350887197039      1.85175551098232     -0.96603628089994
  Cl          4.32653784790322      4.56553228139126     -3.15148144141549
  H           2.02063109145832      4.75383113927798     -2.66708262185925
  H           3.72285156730283      2.85169330971901     -0.96036423941896
  H           0.80634252139899      3.83279500311272     -0.75257086137502
  H           1.76122416512269      3.02734621705311      0.53040548264966
  H           0.35855563942192      0.97398916345374      1.40438115595384
  H           1.72830229310408      0.24508500933289      2.27379825196560
  H           0.42313483771142     -0.77480038075949      1.69559699014461
  O           2.28244567694837      1.12369166784185     -3.03019199108069
  O           3.11011054632711     -0.61227044753405     -2.06287224120386
