21
Coordinates from ORCA-job NEB_product E -44.567646224410
  C           2.97621434547298     -1.79967549582489     -0.79021809124375
  C           1.71769932733284     -2.15222826985948      0.01062808100496
  C           3.04926204119633     -0.35349014781721     -0.85173683887726
  H           3.84159248648464     -2.15218815698488     -0.21062097561243
  C           1.71718083947543     -1.64937165782071      1.43946982004875
  C           2.92834977027546     -2.44912140893532     -2.19105314518580
  C           2.20270265570288     -1.57046897445184     -3.17580222420696
  C           1.01945448118431     -1.87419641718307     -3.67291839836452
  O           0.79651429546705     -2.76302936510743     -0.45171743025618
  C           4.31836494513075     -2.79269110461651     -2.70776681119865
  H           2.37302998932680     -3.39263829406787     -2.09357749964068
  H           2.70706980036561     -0.65275256931634     -3.44853644024644
  H           0.50057444238788     -2.77789196646761     -3.39945237399203
  H           0.52029380997956     -1.22070290157141     -4.36603937500844
  N           3.07337571325161      0.78678564965981     -0.89038092736356
  F           2.95688163835872     -1.25609196788733      1.85255235796456
  H           1.36819523583078     -2.43719842898746      2.11586490020029
  H           1.04907788413014     -0.78204481512183      1.51519583075217
  Br          4.17504612408360     -3.60101955091899     -4.48237417661484
  Br          5.48441174799834     -1.22874372007355     -2.83544182117595
  Br          5.19240842656427     -4.10704043664610     -1.53397446098323
