21
Coordinates from ORCA-job NEB E -39.869986179120
  C          -0.60769306585381      0.35502774589597     -1.01751700344495
  C           0.43265981613940      0.66132844480131     -0.12748398517811
  C          -0.27437493738471     -0.29900448146219     -2.30385074488697
  H          -1.41696236853826      1.07144769753476     -1.07399756558299
  O           1.63883404880661      0.11479018000000     -0.39979864655438
  C          -1.64170026954984     -0.92030134050566      0.19995998478530
  C          -1.84662681330504     -0.12158114511217      1.30563541658551
  C          -0.70798677802234      0.28083920814110      2.04993583584204
  O           0.20089732375922      1.22606128638167      0.99906337706503
  H          -2.48127862055005     -1.17139938271753     -0.43206674618057
  H          -0.87736616026585     -1.68374046672808      0.24780824939812
  H          -2.72244457481569      0.50994420235935      1.34099234811326
  H           0.02044449401569     -0.48915974368350      2.28238533293189
  H          -0.85670277660962      0.98303205788555      2.85905444265831
  Br         -1.88623001110648     -0.59798597298634     -3.35745273596679
  Br          0.93937707515203      0.83342271566358     -3.39263600706353
  Br          0.61210490264028     -2.01632409859254     -2.10166946254813
  C           2.66753887156245      0.28802073571112      0.55746522424813
  H           3.59264971099186      0.02850859122233      0.04836383707700
  H           2.51638220620283     -0.37569023694974      1.41176126531676
  H           2.69847792673134      1.32276400314099      0.90404758338507
