21
Coordinates from ORCA-job NEB_product E -39.924570533740
  C           1.13963026241280     -0.52334032004405      1.44895435096594
  C           2.39011710832068     -0.03481402927783      2.18416964342551
  C           1.46321760709209     -0.95605534253511      0.03266446785070
  H           0.44815832147615      0.32735881444755      1.39568585597316
  O           3.42937350440592     -0.83068751624266      1.95700760292648
  C           0.51126949463735     -1.61757474724393      2.33967703117298
  C          -0.78930695772425     -2.14622751357041      1.80893006459075
  C          -1.96335499696476     -1.62978075681492      2.12005876179257
  O           2.39934662418862      0.92137354154529      2.90672167461808
  H           1.22734721732943     -2.43454027296699      2.45896899666310
  H           0.34592367296700     -1.16107781737166      3.31911347129584
  H          -0.72418418265293     -2.99786433799383      1.14555688337727
  H          -2.05439064531054     -0.78671546748415      2.78586168727068
  H          -2.87998685172828     -2.02604853401911      1.72072606781897
  Br         -0.14483316965102     -1.02032355197451     -1.07597511223225
  Br          2.65410886200033      0.35710762849241     -0.80776229914235
  Br          2.32136299660322     -2.68643190432216     -0.07786156767308
  C           4.65177641822182     -0.48762939079319      2.59941482833087
  H           5.33822115956442     -1.30385968547211      2.39124231030936
  H           4.49289103520378     -0.37463529014749      3.67278791330185
  H           5.03491251960816      0.45016649378886      2.19355736736356
