21
Coordinates from ORCA-job NEB_reactant E -39.897389179120
  C           1.26169897386808     -0.53862885952298     -0.06427074943417
  C           1.96007385760192     -0.82176608514934      1.05723741751114
  C           1.96915471253837     -0.05773736763866     -1.25124604404057
  H           0.19512316241229     -0.65483873016300     -0.12039819532214
  O           3.28485248648785     -0.64875701962058      1.03754033588675
  C          -1.14558527363917     -1.48631491455952      4.51384217018585
  C          -0.20512495596891     -1.96942685715076      3.72617568024473
  C           0.06581231380396     -1.46758957310565      2.34128944578792
  O           1.46851274852806     -1.26773721534440      2.21839743561709
  H          -1.31981757422562     -1.88767608297025      5.49649129264067
  H          -1.78817584682054     -0.67852283132309      4.20467636486281
  H           0.43910120328012     -2.77620065431875      4.04444782631366
  H          -0.46598992334578     -0.52724260114588      2.15463331140332
  H          -0.25907209630205     -2.21516520576816      1.60278203877702
  Br          0.73999065236993      0.27195584849558     -2.71465767199809
  Br          2.95714777403421      1.63090119745713     -0.91744095156352
  Br          3.32978559501641     -1.34764949498118     -1.90194695156040
  C           4.02125774243649     -0.94447709535395      2.21013341264496
  H           5.05594995440273     -0.71962143483035      1.96228899441004
  H           3.91811519006936     -1.99791380751257      2.47758722681428
  H           3.68888930345229     -0.32389121549366      3.04453761081865
