21
Coordinates from ORCA-job TS E -29.566130756480
  C          -1.07437071638602      0.90696687905739     -1.39539012530846
  C           0.00440682403801     -1.54756168059135     -0.44031519466217
  C          -1.32815012554390     -1.38158341932562     -0.65247616832674
  C          -1.87262155309603     -0.19306798027183     -1.16041438783930
  C          -0.33653167661756      1.29613295450978      0.61352333127843
  C           0.46675762804856      0.27018452214737      1.02284562448396
  H          -2.01931063731284     -2.11932309691500     -0.26709752834647
  H          -2.94620119600801     -0.06724965058265     -1.14938093647963
  C          -1.66438758343548      2.13163419697952     -1.76576995423548
  H           0.35426592823472     -2.43862837575505      0.05656012429798
  H          -0.04512198300402      0.79379890194626     -1.70377532122837
  H           0.74354454856530     -1.00910155926370     -1.00535178047559
  H          -1.32304625867721      1.38319132143040      1.02883897369449
  H           0.13878684594282     -0.46885559079707      1.74056120310763
  H           0.12519070101475      2.19707311661691      0.24966867691193
  O           1.80793409452155      0.35069983618541      0.78570523652041
  N          -2.14483735924012      3.13726655016945     -2.03935295680890
  C           2.60971861526037     -0.62514729275845      1.40355799125693
  H           3.64155456171485     -0.35903220656722      1.18178582344664
  H           2.40012426297696     -1.62401571179301      1.00785965713285
  H           2.46229507900328     -0.63338171442153      2.48841771157983
