18
Coordinates from ORCA-job NEB E -30.783744190430
  C           0.24312256908601     -1.19754914983011     -0.62534664406984
  C          -0.57325628639451     -0.29459040664523     -1.31048476732478
  N          -0.28666781418401     -2.02793020516254      0.32970244024740
  H           1.13238208381674     -1.55868505152412     -1.12301760322501
  O          -0.05618851074539      0.23787317291062     -2.46308804426231
  C           1.02907964864910      0.54719170682628      0.51072136753239
  C          -0.14255738936880      0.98612267631612      1.11046269160868
  C          -1.12646327134457      1.58473354438903      0.31068987240258
  O          -1.59382171100593      0.24820816070708     -0.77514665962155
  C           1.97085927691557     -0.19284390969128      1.24952305323751
  H           1.41958236731514      1.04842430558648     -0.36605116290429
  H          -0.42616723420891      0.56172722847974      2.06390297485599
  H          -0.80673584936638      2.27268480292563     -0.46196194759221
  H          -2.08188954024032      1.82467488056861      0.75087000851508
  H           0.37646935604623     -2.45104499574482      0.96219097366567
  H          -1.11235692695851     -1.65785339052679      0.78199103067375
  H          -0.67432524110881      0.90097049733117     -2.79787971666353
  N           2.70893447309735     -0.83211386691586      1.85292213292447
