18
Coordinates from ORCA-job NEB_product E -30.827719442980
  C           2.95854234458523      1.25779495268559      0.89354415131527
  C           1.65866556465368      1.58405263627866      0.15865444257234
  N           3.12826281519602     -0.15707841665027      1.11912453504128
  H           3.79703796380296      1.63871058688564      0.29939760629065
  O           1.57142426077976      2.87028936112185     -0.18761843974475
  C           2.93995193493663      2.03373323743731      2.24520606496369
  C           1.83243331999401      1.54952713109345      3.14188475507233
  C           0.77345292529040      2.27566767165110      3.44313646290962
  O           0.80189381608391      0.77623296196919     -0.07724146569652
  C           4.21352979921017      1.86252881351307      2.90729425573532
  H           2.80889426803920      3.09970137039694      2.02367455816704
  H           1.95873597140592      0.54866779767197      3.52842264211133
  H           0.64223619310984      3.27897424265801      3.06956863540038
  H          -0.00883796464890      1.89791371884773      4.07821399511005
  H           3.44758894967713     -0.62473788253104      0.27955766410574
  H           2.23872850591056     -0.57326116650252      1.37854286937898
  H           0.73220717995055      3.04674238686851     -0.64336048530342
  N           5.21535215202292      1.73744059660480      3.44149775257067
