18
Coordinates from ORCA-job NEB E -41.671475282970
  C           0.52732585349504      1.02693707201690      0.67396504565849
  C          -0.78056329372479      0.55665699848654      0.76825416275404
  Br          0.73608476154364      2.76353376905267     -0.08483126768130
  H           1.21985183651315      0.85879894664917      1.48687467983277
  C          -1.07200431636859     -0.46684904278288      1.87017701761500
  C           1.26389431658965     -0.17331004950696     -0.90331247092473
  C           0.09823026841630     -0.74991026503985     -1.41872377811863
  C          -0.96410962600257      0.05761549474824     -1.79491642568872
  O          -1.60449801009783      0.67566677464258     -0.17495912915194
  O           2.17482481366581     -0.99353448341141     -0.34381348449192
  H           1.65323177749765      0.71231070228822     -1.39555620591310
  H          -0.09168880402547     -1.77687377727350     -1.13797508413200
  H          -1.88004829909134     -0.39807231464448     -2.13413914301629
  H          -0.76562633311171      1.04121775648474     -2.19629189325614
  Cl         -2.73432738386656     -1.03903169694891      1.75182391145076
  Cl          0.03341464130034     -1.86390791000285      1.76644095430592
  Cl         -0.82796363561970      0.31434536024438      3.45129201013662
  H           3.01397143288698     -0.54559333500259     -0.18430889937884
