18
Coordinates from ORCA-job NEB_product E -41.709775121980
  C           2.77567626287997     -1.85755693006498     -0.98870040833136
  C           1.46395012315106     -2.41617729805798     -0.49974133184985
  Br          2.49883931599360      0.05445040310984     -1.14395364771718
  H           3.57231748462014     -2.00447016338138     -0.25848547900830
  C           1.48193182576425     -2.85629594832747      0.97394770930051
  C           3.21384622367213     -2.45626623064164     -2.34125301984110
  C           2.17471642440533     -2.30316950472308     -3.41614589453071
  C           2.17489803123591     -1.31355238669766     -4.28925775478837
  O           0.47826412898546     -2.52687219086245     -1.16303493298000
  O           3.49890981159002     -3.80678999972079     -2.04654907548987
  H           4.13535932892758     -1.92766388025608     -2.64230232414267
  H           1.40815081102852     -3.06459110583781     -3.42141354519445
  H           1.40760320877938     -1.22516228002224     -5.03762564705394
  H           2.93064788492004     -0.54489207025588     -4.28207564212618
  Cl          2.58039088406467     -4.25739211925474      1.06013428730538
  Cl          2.09287329004492     -1.54996546542798      2.00953905261286
  Cl         -0.13317151596252     -3.32602111282166      1.50217837614206
  H           3.64679647589954     -4.28401171675601     -2.87036072230683
