17
Coordinates from ORCA-job NEB_product E -30.353907624610
  C           3.02859601121064     -0.78457948936100     -1.56853542195899
  C           1.51509203058244     -0.60134568794786     -1.47668143691109
  Cl          3.80594571249689      0.01742687143288     -0.17821121316488
  H           3.30334861069580     -1.84113385268191     -1.51203297671720
  N           0.83290815172202     -1.52614582690573     -2.19119210742111
  C           3.57853756087662     -0.17631673093324     -2.88370078821125
  C           3.22891649645400      1.28524205345017     -2.96324652561857
  C           2.29058115932442      1.77401815287517     -3.74960939848961
  O           0.97658123581730      0.27930173104759     -0.85743597908220
  O           4.95395511172676     -0.41368432881465     -2.99356674307000
  H           3.12051404375419     -0.71442912901872     -3.72242512622341
  H           3.80335789312160      1.92897151207438     -2.31246992215896
  H           1.70943779146336      1.14417286348515     -4.40342447370322
  H           2.05967835775142      2.82449532344798     -3.76863165786981
  H          -0.17159204140752     -1.46462807466938     -2.21586770488601
  H           1.28427086082789     -2.26110967465756     -2.70444701440524
  H           5.39007101358216      0.00374428717676     -2.23742151010845
