17
Coordinates from ORCA-job NEB_reactant E -30.332903862800
  C           1.97256399289767     -0.19817744166617     -0.34202037988046
  C           1.43929419729373     -0.61643377196172     -1.49759411795279
  Cl          2.66465546373203      1.35531425123933     -0.00657921536883
  H           2.01341777001551     -0.86436824262744      0.50159159150474
  N           0.94812690027901     -1.91501640123146     -1.59766122104988
  C           4.16666629069647      0.27032905294516     -4.33959868363340
  C           3.58574543632539      0.59206847135740     -3.19206284788680
  C           2.16807229632071      1.05757010846661     -3.09626702748902
  O           1.27535964258177      0.02135510071500     -2.68160338557663
  O           5.43429028231974     -0.16804814676250     -4.48966601869847
  H           3.66332456021385      0.35162849717504     -5.29247114914923
  H           4.12208009208467      0.48839964061981     -2.25870182007901
  H           1.78873219835826      1.33699246508131     -4.08185483160802
  H           2.08763730458482      1.91578064029591     -2.42250164902562
  H           0.34365494858583     -2.03176279100130     -2.39749018501882
  H           0.57710370739376     -2.30937770304239     -0.74820197728845
  H           5.86107491631678     -0.23935372960260     -3.62571708179932
