22
Coordinates from ORCA-job NEB E -32.738401778090
  C           0.28110147034411     -0.24524604030151     -1.13378533233219
  C          -1.09673617540036     -0.46200861576291     -0.89039159181948
  N           1.12014580143628     -1.34751682975578     -1.19719862151698
  H           0.55406612902019      0.54264798720843     -1.82977828089300
  C          -2.10021310403345      0.58762181350134     -1.29649046540733
  C           0.58889206753246      0.65219464366198      0.63798742882605
  C           0.24104679620851     -0.35870581261699      1.53832593479175
  C          -1.09526759871795     -0.77076068986562      1.60885458226397
  O          -1.42005028492515     -1.35052716455619     -0.02143142733801
  C           2.01600872484870      1.13476255303842      0.56603198204228
  H          -0.10404140334406      1.47680283109729      0.50765063046202
  H           1.01391966660645     -1.05206415000625      1.84070899855719
  H          -1.86505351499471     -0.00936273061730      1.61893778747142
  H          -1.33378956750415     -1.64249824044520      2.19953151614775
  H           0.79177273001871     -2.10239088068652     -0.60710422521952
  H           2.10288849572817     -1.16055926277007     -1.06221956948247
  H          -2.15636923089688      1.38087746230367     -0.54642565005659
  H          -3.08427680009940      0.13192004667176     -1.37054721529442
  H          -1.83361366894223      1.03058837020425     -2.25129442388170
  F           2.92141366369411      0.10410548815517      0.66430719206841
  H           2.22958643081756      1.81200817477764      1.40265321940241
  H           2.22856937260308      1.64811104676437     -0.37832246879157
