22
Coordinates from ORCA-job NEB_reactant E -32.765896487750
  C           1.12504011642393     -0.02769544303908      0.00169997459554
  C           1.80235453858643      0.84128244357142      0.75692307400082
  N           0.65459083872974     -1.26043265394806      0.44425230854933
  H           0.95341366916576      0.18083529304973     -1.04300314260567
  C           2.39579500317561      2.10990280570153      0.22112351837079
  C           2.82219474060665      2.91476884891747      3.47908044905330
  C           3.65827138029362      1.93239608218355      3.19165292961576
  C           3.22946510653471      0.59834132505795      2.65043464537113
  O           1.91956134014301      0.57440141384317      2.12161242583248
  C           3.22117601286552      4.24316793631094      4.03298197347545
  H           1.75992876786899      2.79941237958861      3.31555324365655
  H           4.71991714325406      2.04026675928953      3.36355053622942
  H           3.22657891481902     -0.12712463562607      3.47560787647198
  H           3.95414914442287      0.24650362673891      1.90394338530685
  H           0.69462564382686     -1.33731971542412      1.45195316401117
  H          -0.24732140589999     -1.52351657001336      0.07500550808967
  H           3.46717999685033      2.16047014841473      0.41428058791816
  H           1.93439450061480      2.97601997929358      0.69562283271583
  H           2.23190848823001      2.16644910120358     -0.85079139558765
  F           4.57723885933321      4.34188358184862      4.22331533316933
  H           2.75156559675645      4.41636249760547      5.00980058025023
  H           2.93957160339842      5.05572479543192      3.35040019150951
