22
Coordinates from ORCA-job NEB_product E -32.773927847940
  C           2.21583644490154      1.37006111953712      1.24139719993416
  C           1.01866975030725      2.27249794258001      0.91567943385500
  N           1.85589614261435     -0.02877155941429      1.05910785123377
  H           3.05327945178220      1.58935022700446      0.56981597190878
  C           1.20726084820591      3.20664328062598     -0.25038096784446
  C           2.65432220967841      1.58113066232591      2.70460981343488
  C           3.74098630171657      0.61148402445908      3.06261452475095
  C           3.65680126001977     -0.26217937786632      4.04615082243986
  O          -0.01839997159403      2.17587191124877      1.52376865135570
  C           3.13877570289863      3.01918898140669      2.89941172631400
  H           1.78699324838006      1.41837236341080      3.35226886172204
  H           4.63201117130307      0.67682862147539      2.45321465759658
  H           2.77832644926312     -0.33724915235403      4.66517920765934
  H           4.46308815036941     -0.93576695416780      4.27899049514691
  H           1.10394538610554     -0.27374175435942      1.69540951484675
  H           1.53009470287121     -0.19424345600540      0.11270756261973
  H           2.06973272243944      3.84602656585866     -0.07430198453285
  H           0.31857241797726      3.81459357811662     -0.39832880767589
  H           1.40093360549736      2.62437392984969     -1.14979187060142
  F           3.46751377822710      3.23904843556579      4.21168071477315
  H           2.35500373540695      3.74314003059644      2.64972061795129
  H           4.04215649162887      3.22104058010584      2.31237600311173
