23
Coordinates from ORCA-job NEB E -44.183043866340
  C          -1.46783908797566     -0.54327015186597      1.03024032209821
  C          -0.34943383817528     -0.36112181415136      1.87797546657295
  I          -1.25136975368754     -2.21077157234221     -0.15114564285697
  H          -2.47044750165903     -0.21803495596697      1.23121807417361
  C          -0.39665281621269      0.86136617749126      2.77555395839763
  C          -0.18539116910378     -1.18993908523145     -1.88721302076254
  C           0.38846387408757      0.08287431303433     -1.39636156765302
  C           0.12256111383843      1.25724306902009     -1.94093437852015
  O           0.65602424336865     -1.05988915932839      1.77209733442599
  C           0.85033934710628     -2.17273736446061     -2.37890080593841
  H          -0.92098550867778     -1.05715113011603     -2.68280705131897
  H           1.00798027482271     -0.01633955440337     -0.51856482853516
  H          -0.51610812782132      1.36131248134402     -2.80335589146273
  H           0.55286435543281      2.16087732233606     -1.54758919778129
  C           0.30247465057965      2.00951583129415      2.04476506785959
  H           0.13627053619655      0.63294931399935      3.69866117945202
  H          -1.42785745316789      1.12850028698156      3.00711081967364
  H           1.36123413086440      1.78917971375574      1.92542231091344
  H           0.20759489340148      2.94090849543587      2.59533962276200
  H          -0.13411094612977      2.14359627467551      1.05764609391168
  F           0.29706644974823     -3.38540727086074     -2.58091512405904
  F           1.35451446845866     -1.79826261899038     -3.56726866551056
  F           1.88280786470532     -2.35539860165049     -1.56097407584196
