23
Coordinates from ORCA-job NEB_product E -44.283529896420
  C           2.31328951251233     -2.46407849778687     -0.64481663417638
  C           0.95533372806680     -2.90518179955272     -0.09874384064468
  I           2.16382150811287     -0.30392661724796     -0.72841834182615
  H           3.12733207733719     -2.67219841913812      0.05012915707760
  C           0.89509666972574     -3.01040053214344      1.40076750031562
  C           2.59079541549780     -3.05084014478672     -2.02600221569202
  C           3.68945811958912     -2.34590762164966     -2.77164779590417
  C           3.54560429284024     -1.86424012917433     -3.99088308547358
  O           0.03715586000890     -3.12699818905401     -0.84032649534963
  C           3.00239407437922     -4.51004294744281     -1.83706670763036
  H           1.66144510859946     -3.04836271660928     -2.60876020594947
  H           4.62746912129033     -2.26250467399886     -2.23915828783754
  H           2.61666240728216     -1.94631858415101     -4.53038764130244
  H           4.35217053060519     -1.36162319655178     -4.49431120345637
  C          -0.53357264632129     -3.15295980266428      1.90732256554749
  H           1.38284405078531     -2.13935319657303      1.84580092226039
  H           1.48299722976333     -3.89252357569409      1.67545764001304
  H          -1.11140797585489     -2.26680702782093      1.65694107659759
  H          -0.54152486792865     -3.28465430865368      2.98570221185662
  H          -1.00939970612128     -4.01187842407862      1.44176896210371
  F           4.17405505368307     -4.61948348694776     -1.18527507377583
  F           2.11990660687540     -5.22000073651458     -1.11675627504667
  F           3.14917382927164     -5.14471537176548     -3.00283623170678
