23
Coordinates from ORCA-job NEB_reactant E -44.266475964580
  C           0.36699559865920     -0.68734682407541     -0.43446180946893
  C           1.54662718604796     -1.29801140735071     -0.49569769781825
  I          -0.46968999023377      0.21663699771437     -2.13276639670009
  H          -0.21452664750784     -0.60734678434456      0.46229660222182
  C           2.12730439929784     -1.96264510261676      0.72708485107964
  C           2.02580591388721     -4.05204836328753     -2.14800635038445
  C           3.20129815704360     -3.45935347267234     -2.01445242034834
  C           3.37549708395157     -1.97283398490731     -1.93341394371567
  O           2.19243191842669     -1.26028503725519     -1.70086857289708
  C           1.86883572356589     -5.53532312965871     -2.23195313188483
  H           1.09565426621958     -3.50676429372503     -2.21061497862801
  H           4.11480972394875     -4.03640132792606     -1.97525538361868
  H           3.72123627090767     -1.61256996448158     -2.91069737284978
  H           4.15563366923730     -1.72416081324897     -1.20074657743466
  C           1.27679517373070     -3.13953154844108      1.20885505300415
  H           2.18685561300850     -1.21907108493519      1.52590137773369
  H           3.13780014174549     -2.31831357385278      0.53050115275686
  H           0.26642806007915     -2.81616412268106      1.44193604733250
  H           1.71685568678696     -3.56741381883388      2.10610148443875
  H           1.22068345462153     -3.91790744221230      0.45250156078683
  F           1.12203329560400     -6.01329824667110     -1.21625597009778
  F           1.25163998223771     -5.91595093267188     -3.36093902427868
  F           3.03319531873431     -6.19819572186493     -2.18654849922900
