17
Coordinates from ORCA-job NEB E -25.957243865440
  C           1.08539699632789      0.26549414409339     -0.35826313384690
  C           0.49565444213781      1.42194256740667      0.17719795680320
  C           0.65220071439213     -0.19633279866765     -1.72724540107451
  H           2.15137459723793      0.15114499047705     -0.18163760117578
  H           1.02320043433673      1.96461143197800      0.96906852614024
  C           0.28743583746860     -0.98498501283929      0.83805384226366
  C          -1.08659860974919     -0.78875433976032      0.65292698839714
  C          -1.60335672737095      0.48552072543730      1.00028039931580
  O          -0.78428742941268      1.58461481646331      0.08540265745750
  Cl          0.95232936795803     -2.53830419395117      0.40170987335454
  H           0.73894281394843     -0.64894295702181      1.76547107752344
  H          -1.58423212861592     -1.35990198350571     -0.11610825301892
  H          -1.35743891603585      0.85721779738710      1.99081058773506
  H          -2.63253191546535      0.68001244604450      0.72688520321755
  H           0.79649381999052     -1.26580414684659     -1.85501920043726
  H           1.25688885776014      0.31783335909130     -2.47328979085513
  H          -0.39147215490826      0.05463315421391     -1.89624373179963
