17
Coordinates from ORCA-job NEB_reactant E -25.990680645890
  C           1.77807883539292      0.01109851851283      0.05612018410230
  C           1.15616780135103     -0.25959540808251      1.19523261204541
  C           2.01229071271939     -0.98191889591362     -1.03389684524023
  H           2.14273182320341      1.01404449171529     -0.10335685990981
  H           1.01149049665965      0.49768878076482      1.95798905617191
  C          -0.24229394256345     -3.80494256218620      3.90534521935285
  C          -0.48934131653908     -3.02190821889278      2.87029061442459
  C           0.04388278236409     -1.62860537748901      2.74834965037252
  O           0.65619654934774     -1.49968468357883      1.48474455657956
  Cl         -0.88088186698363     -5.39212669720779      4.04193819939913
  H           0.35990955942577     -3.50773066640850      4.75059455481005
  H          -1.08598008030115     -3.36211777635135      2.03745698320675
  H           0.76316110959749     -1.41808942653814      3.55291458182036
  H          -0.79127961739034     -0.91334668858730      2.83470600925783
  H           1.61161946036487     -1.94965380067019     -0.74826319975962
  H           3.07906059165006     -1.08148313874116     -1.23290981867558
  H           1.53198710170122     -0.65392845034555     -1.95555549795802
