17
Coordinates from ORCA-job NEB_product E -25.997458993290
  C           1.71543705643719     -1.29763993716439      1.07760515468564
  C           1.07329710531653      0.07103106194695      1.18335576696314
  C           1.30003393580055     -1.93729004140528     -0.25024318731378
  H           2.80403403055416     -1.19653702765507      1.10714009982511
  H           1.79353002410062      0.91121019018859      1.22904945736445
  C           1.28291486330599     -2.12913993993631      2.29930552711017
  C          -0.17186782487082     -2.44154993847065      2.35266994476845
  C          -0.95455611834045     -2.07684245123083      3.35137769314814
  O          -0.10665970621480      0.26970854854095      1.20964130098970
  Cl          2.19771695940814     -3.68471114217390      2.28208439483086
  H           1.59801359898771     -1.61885324417685      3.21452698092101
  H          -0.55981183415226     -3.01728219470350      1.52601755076091
  H          -0.58382994186254     -1.50956124964245      4.18939289490335
  H          -2.00263022763460     -2.31851055698919      3.36373227640389
  H           0.22178098141835     -1.88373303865120     -0.37439928712961
  H           1.61739599933086     -2.97657388410009     -0.27646310877304
  H           1.76920109841537     -1.40852515437678     -1.07679345945840
