19
Coordinates from ORCA-job NEB E -45.051981450750
  C           0.81109989847919     -0.72009867551461      0.12462403781386
  C          -0.15650664881451     -0.79778943360929     -0.86597152406412
  C           0.56679287800850     -1.30469848692039      1.49281204525420
  H           1.83967861204261     -0.87754511112296     -0.19298491023063
  N           0.30733868782113     -0.65505357623425     -2.24241080285983
  C           0.64616188176086      1.27492264964308      0.52368480258192
  C          -0.71232950004506      1.36391561490243      0.70863439520722
  C          -1.60721565710945      1.01600106176222     -0.38548799560808
  O          -1.40583765454599     -0.46982208235753     -0.65296092373569
  H           1.30156247887747      1.43064143058969      1.36802953559285
  H           1.07941628838653      1.54599065847394     -0.42902701700433
  H          -1.11798858930385      1.35126175464584      1.70937571367893
  H          -1.38393573590565      1.50090529002727     -1.33849725457657
  H          -2.66428285127762      1.08326323489219     -0.14715313132016
  F           1.44385413305161     -0.83856447141673      2.39510405255276
  F          -0.64854131954648     -1.08495504210401      1.99426785854583
  F           0.73460701241834     -2.63449525563371      1.45842142415639
  O          -0.49638702767152     -0.23663979712057     -3.04476858433736
  O           1.46251311337387     -0.94723976290262     -2.47569172164718
