19
Coordinates from ORCA-job NEB_product E -45.079923018690
  C           2.38450034595801      1.29429027437706      0.47052361986075
  C           1.41283177783333      0.80398571277653     -0.56402794295535
  C           2.34012397153746      0.39797116812175      1.70967807901230
  H           3.40313236391535      1.23935619307356      0.06929369408302
  N           1.62223034186472      1.51839184996912     -1.92764586417752
  C           2.04164332222308      2.76942128754704      0.81028961102419
  C           0.55649105463495      3.00278257885567      0.77475541370638
  C          -0.03208491741072      3.78617819402977     -0.10947893678168
  O           0.54233113657900      0.01191015054320     -0.49095607560949
  H           2.43789559890623      2.99805061140144      1.80216377549709
  H           2.53607317000151      3.41527896624118      0.08362955033520
  H          -0.02289216139189      2.47595050508214      1.51970404290825
  H           0.52808219198138      4.32410933797448     -0.85776742759540
  H          -1.09765653486062      3.93138738591720     -0.11663830235839
  F           3.24503702101402      0.80013327061171      2.61390511718223
  F           1.15840355457969      0.39635502855451      2.32465278071162
  F           2.63725751402157     -0.87120300349373      1.40899572473274
  O           0.74394337962467      1.36365799956289     -2.72593761420696
  O           2.63975686898825      2.15239248885448     -2.06093924536899
