19
Coordinates from ORCA-job NEB_reactant E -45.069277822830
  C           1.91584947069139      0.15063583666861      0.10123520942385
  C           1.62759978442702      1.04907566753274     -0.84810756101848
  C           1.47201468674769      0.09754849214071      1.52350550020051
  H           2.53351022060263     -0.68685817826702     -0.19382526183116
  N           2.20964005350221      0.75454094379922     -2.20579299531026
  C           1.50463312450741      5.07896919924666      0.86727670844029
  C           1.59101670809948      3.77053375795137      0.72787773431429
  C           0.48265947350191      2.92495760876018      0.17323112607021
  O           0.93094444716012      2.15509049539652     -0.94653735873652
  H           2.31221933419057      5.65547973131200      1.28258515120974
  H           0.61953863503073      5.62399517325118      0.58456765277259
  H           2.48619019526637      3.23767814559965      1.01548588368208
  H          -0.30923880170935      3.55413433186616     -0.23845589288851
  H           0.05467015611492      2.28118127910435      0.94594294759637
  F           1.91863293065708      1.12578253325886      2.27156935692880
  F           0.13034976745591      0.09967636040904      1.66456039195620
  F           1.91048334655912     -1.01508157500002      2.11499349133826
  O           2.04420282696524      1.59453464495863     -3.04397185354049
  O           2.79108364022955     -0.29057444798884     -2.34014023060776
