20
Coordinates from ORCA-job NEB_product E -37.627885635310
  C           1.47345752416829     -0.90875644238295     -2.17947284918284
  C           1.02350724443931     -1.19703581483034     -0.76845542632536
  C           1.53717908307795      0.60464417604146     -2.40053928352167
  H           2.47697486692545     -1.32251324315620     -2.32015310048295
  Cl          1.49390728615846     -2.81517006845606     -0.24911389745513
  C           0.49605216239436     -1.63598128436017     -3.13610282360917
  C          -0.88785402887622     -1.05620929337288     -3.04858757943131
  C          -1.91420490281471     -1.69001519224687     -2.51553514670860
  O           0.39485863399989     -0.49931055436715     -0.04976064257966
  C           1.01327627503164     -1.60744237263028     -4.57890357044304
  H           0.45973658705595     -2.68823462079194     -2.83335478135514
  H          -1.00762583433508     -0.06592679579734     -3.46596190236981
  H          -1.81882117361153     -2.68041545037737     -2.10216403786425
  H          -2.89349323451489     -1.24710342774939     -2.47189268028512
  F           2.70103482061480      1.08710978318637     -1.86019875808999
  H           0.71313722586231      1.11734317942780     -1.89600628718954
  H           1.56261402566304      0.85895565585504     -3.46334830453698
  F           0.33310335095580     -2.53678793384053     -5.32065352370346
  H           2.07297003414660     -1.87917213159887     -4.63161018430472
  H           0.84419005365860     -0.64167816855230     -5.06538522056125
