21
Coordinates from ORCA-job NEB E -32.737394941910
  C           0.36267359516486     -1.14091401219520     -0.24954817010358
  C          -0.64769400768322     -0.32496011813567      0.18528822126924
  Br          1.18662679331366      3.58176840406241     -1.39498853799427
  H           0.40733952242059     -2.17107028328293      0.06411103334966
  C          -1.52755246294324     -0.60887605316256      1.36138584418762
  C           1.56895820948383     -0.52228554913142     -0.94868122710537
  C           0.58579145226832     -0.20514435019288     -2.00065638451746
  C          -0.34899750068220      0.85208540600020     -1.75278755115904
  O          -0.92932107231584      0.78612884311258     -0.48193387004463
  O           2.26306565505151      0.45689592307056     -0.26356077230419
  H           2.28722224260081     -1.29059707612439     -1.23462897396693
  H           0.64183720077136     -0.67411333694660     -2.96933304200244
  H          -1.14056167550242      0.97458168489081     -2.49342694799211
  H           0.22196531509124      1.92795401762286     -1.74935903647129
  C          -0.77076255258280     -0.38831343303203      2.67341650200993
  H          -1.86974897201359     -1.64414118546855      1.30653628851042
  H          -2.39165380819726      0.05428371494506      1.31583979521571
  H           0.10605284582796     -1.02862028562831      2.72107557913411
  H          -1.41733438802940     -0.61400956892263      3.51681898517572
  H          -0.44617565224912      0.64567127572167      2.75183178195160
  H           1.85826926020495      1.33367598279702     -0.35739951714272
