17
Coordinates from ORCA-job NEB_reactant E -30.393897303320
  C           1.96334216274846      0.07473398989414      0.09845798951523
  C           1.28622379247748      0.95187107267113      0.83532439652744
  C           2.15969585327342     -1.34423494797900      0.50973575553548
  H           2.39817623002135      0.36519957966649     -0.84191962556722
  H           1.16904032316601      1.97645546849193      0.49628114487406
  C          -0.55638132382734      1.67886638826151      5.11379939545380
  C          -0.59929074295599      1.12442045634885      3.91821746869457
  C           0.06398074204094      1.69364990280814      2.70235999523731
  O           0.71531698433187      0.63669667644662      2.01030414455818
  H          -1.06414374113005      1.24433046823498      5.95674733533619
  H          -0.02094095375202      2.59588784175003      5.29757516691162
  H          -1.13231790218433      0.20114631011958      3.74298321820975
  H           0.79022673246999      2.46812156132399      2.98174749904559
  H          -0.69632297741029      2.14705863686603      2.04698282687023
  F           1.60457549507912     -2.20212320371508     -0.39276851547498
  F           3.48206071859128     -1.66904510083888      0.54206493646613
  H           1.73055860706009     -1.56833510035048      1.49620686780660
