17
Coordinates from ORCA-job NEB_product E -30.403096051750
  C           1.66184008415225      0.41762694649796      1.58883522077641
  C           0.79432776623439      0.91366645828100      0.45346223527998
  C           1.67594876905844     -1.11228515134784      1.63534851621320
  H           2.69083757162172      0.71214141925986      1.34142671704841
  H           0.50040031298436      1.97260875682963      0.56500676560330
  C           1.27381242781650      1.06922246497031      2.93096131233406
  C          -0.21104775499381      1.13539622449518      3.13279920015815
  C          -0.87132977295576      2.25856442905280      3.34038080117396
  O           0.45845914461737      0.26159082300210     -0.49128958397273
  H           1.72420156231470      0.48239962710767      3.73631006666000
  H           1.69139365177516      2.07691259826748      2.97225370670519
  H          -0.73237159214088      0.18966927138876      3.10774471975535
  H          -0.37401828096719      3.21493253449516      3.37662117734916
  H          -1.93632567719582      2.27106741164608      3.49325387885666
  F           2.74253682242051     -1.54676056273478      2.35378911995303
  F           0.58620856703444     -1.61979187832540      2.25029934967655
  H           1.73522639822363     -1.55696137288599      0.63019679642931
