20
Coordinates from ORCA-job NEB E -49.104380963650
  C           0.43845126517577     -0.17624190819248     -1.00530534018820
  C          -0.98482944864141     -0.18435569818900     -0.88696595429119
  O           1.09828577138480     -1.38434292635803     -1.08771398141046
  H           0.85482556860849      0.60520826878648     -1.64878171951054
  C          -1.70301825240219      1.12412624594100     -1.18074351901030
  C           0.90766383471449      0.28479801538612      0.69911044337535
  C           0.26877720620686     -0.68292411441753      1.49760657480347
  C          -1.15019777015223     -0.71654967138345      1.49881169391373
  O          -1.53534177434553     -1.00504969171170     -0.05060570092029
  N           2.38134485534662      0.21976386732546      0.63760503600838
  H           0.58490477833476      1.32281584228376      0.72814567890450
  H           0.82954453655309     -1.58027041170427      1.71938647398221
  H          -1.66431384252071      0.22549165841330      1.67328732314878
  H          -1.61349194158236     -1.54875616824490      2.01426481051500
  H           1.22976933996649     -1.63545000371764     -2.00840892807265
  F          -3.02204488572959      0.97150586660562     -1.25860028981276
  F          -1.48536118736968      2.06476735791081     -0.22327909706642
  F          -1.28553915361765      1.67328513888623     -2.32979288224184
  O           2.93576782116505     -0.70444512717978      1.16458928081206
  O           2.91480327890494      1.12662345956001      0.04739009706117
