20
Coordinates from ORCA-job NEB_reactant E -49.146493512660
  C           2.21856948369615      0.58681389289430      0.31541934824171
  C           1.42345653117841      1.36203216438878      1.05785964880746
  O           2.87047908631373     -0.51724517006501      0.77455862753726
  H           2.35557203406179      0.84677224606555     -0.72410370473656
  C           0.75325605068296      2.56679259311244      0.44307999602205
  C           3.80525992686376      1.62759607260994      3.12029585574853
  C           3.13309681946783      0.52284989806200      3.42296326016203
  C           1.68008649508163      0.30356235084389      3.17943248462406
  O           1.06554753417464      1.28666967350657      2.37598486110714
  N           5.21268116412036      1.72188791583536      3.37267192027459
  H           3.38397870294767      2.51792150732656      2.67894530011361
  H           3.66433285190371     -0.30383032660327      3.87738637917831
  H           1.14272629843930      0.35168778919055      4.13354638360243
  H           1.53325656296545     -0.69547130423871      2.75292103662710
  H           3.45992409435522     -0.85963177607716      0.09447143984126
  F          -0.57532294497410      2.53670449776632      0.58632992204040
  F           1.17620218777464      3.70594383795887      1.01084373658775
  F           0.99594780906057      2.68375063309447     -0.86960348605509
  O           5.77459384134360      0.76927651680309      3.86955141218644
  O           5.75115547054266      2.76071698752543      3.05824557808951
