20
Coordinates from ORCA-job NEB_product E -49.136413098050
  C           3.10544803399014      1.15030168651430      0.82605701576355
  C           1.62140163301701      1.16405594426873      0.54466797296325
  O           3.67596714738007     -0.03546095455283      0.38754396476812
  H           3.59679755818560      1.99143251768750      0.30921236104956
  C           0.87880068008401      2.49756063789618      0.82691189332620
  C           3.33043856620415      1.35850349888485      2.35579717025893
  C           2.84159325865441      0.20251965942337      3.16708343547923
  C           1.89159888010495      0.30614017179486      4.07739679663149
  O           1.02592974350904      0.20129036950770      0.15312636709358
  N           4.82056915663552      1.53964454754336      2.53467126246439
  H           2.87885782870391      2.30278999654380      2.67628902860793
  H           3.32912215254655     -0.73931739800564      2.96111991437833
  H           1.40441930106327      1.24226762241305      4.29568265695155
  H           1.56046685912158     -0.54878349697710      4.63912472411650
  H           2.97687598324226     -0.68793730491582      0.22453307305064
  F          -0.15519304726090      2.66576338479532      0.01331569161456
  F           0.41660779552699      2.51916047550526      2.08744048508379
  F           1.68300088827011      3.56003587350188      0.69465321083494
  O           5.36406169536431      0.84994347083118      3.34938647396089
  O           5.33003588565705      2.39048929734005      1.85608650160256
