33
Coordinates from ORCA-job P E -41.401007258040
  C          -1.53302348786335      0.25622768505149     -2.06318631346554
  C          -0.32473303800256     -1.39300214899216      0.13051946233280
  C          -1.48383670366211     -1.84044790758670     -0.70450385043622
  C          -2.02521929378116     -1.11495077147915     -1.66834655108944
  C          -0.66512202604051      0.84165513672954     -0.94070882282159
  C           0.37829095880875     -0.17222925281649     -0.47023015261726
  H          -1.88139395927757     -2.81863475548921     -0.46632144600499
  H          -2.86310006745272     -1.49878552782016     -2.23494937664860
  N          -2.58911799943868      1.18705651831834     -2.44742856174174
  H          -0.68862888440907     -1.15204995619074      1.13474241631089
  H          -0.88413156484786      0.15153205520311     -2.93799078530550
  H           0.38981577570282     -2.21284235940196      0.23997737408432
  H          -1.28727319949957      1.09444419845753     -0.08346585016671
  H           1.00474190850235      0.29418102369598      0.29857261889242
  H          -0.18781080444111      1.75598918785584     -1.29559500234069
  C           1.31236331616540     -0.59513050969469     -1.60173578391220
  C          -3.23946489864786      0.97446904129996     -3.74736016596238
  C          -3.61411386322573      2.34910943358478     -4.31556037202286
  C          -2.38636157602468      0.25343097612602     -4.79021497297005
  C          -3.57241015579363      1.37458232738886     -1.39573705853582
  H          -4.16471532399132      0.38443959754228     -3.61238056391362
  H          -2.70964726484966      2.92574925992986     -4.48938532501887
  H          -4.24424563428707      2.90798934760647     -3.63043637609329
  H          -4.14810638368021      2.23607036402519     -5.25580859761942
  H          -1.45874068704117      0.79174896436186     -4.97021934411441
  H          -2.94222294211509      0.21827379540196     -5.72484138096181
  H          -2.15931120917705     -0.76930505762900     -4.50084389071725
  H          -3.13138144600435      1.93898928221898     -0.57587169047066
  H          -3.95880168869113      0.42394863237701     -1.00049833773415
  H          -4.41195771410679      1.95091931307982     -1.77468936029485
  F           2.42343405891668     -1.22194358093046     -1.08407766264510
  H           1.67869758810304      0.26952827421554     -2.16483332702552
  H           0.83934821015294     -1.31504258643968     -2.27572094896990
