21
Coordinates from ORCA-job NEB_product E -37.619079033230
  C           0.34260554969199     -0.84532748979948      1.35667699418613
  C           1.02559340613723      0.44994683234293      0.94332043551261
  O           1.20005235990144     -1.95405108003890      1.31791790678988
  H          -0.51473302169995     -0.98239826925977      0.67072320225333
  H           0.32832617006674      1.31073428298833      0.90948658243083
  C          -0.18037376826065     -0.73213869114722      2.81096226714673
  C          -0.70190298185972      0.63356345568076      3.15611648532130
  C          -0.17665485928511      1.40582168748521      4.08789558822720
  O           2.18022059977780      0.56328116751423      0.65796529286803
  C          -1.30328631652915     -1.74913017640260      3.04532993765932
  H           0.65391505222272     -1.00609431413340      3.46307928672531
  H          -1.57673334031426      0.94532185781174      2.60101509601760
  H           0.69097370184479      1.10556807347181      4.65138771816415
  H          -0.58610626734370      2.37401793335733      4.31751158135087
  C           1.47540155439588     -2.43948810656841      0.02464140752741
  H           2.09028145109786     -3.32521021057256      0.16602401498968
  H           2.02296279802990     -1.70715121377121     -0.57571418882322
  H           0.55010425178167     -2.71697846593691     -0.49518187313343
  F          -2.33709606715138     -1.52573819069733      2.19201439246510
  F          -0.90779605812051     -3.01830575415111      2.82547894716620
  H          -1.70325421438358     -1.69174332817344      4.07034892515498
