21
Coordinates from ORCA-job NEB_reactant E -37.615908814710
  C           1.04351293960153     -0.39427213042709     -0.09268549191101
  C           0.70345669702232      0.37024297894691      0.94108759033730
  O           1.88603519435725     -1.46182106224013      0.00700404476522
  H           0.64658574365696     -0.16973415856210     -1.07454070840452
  H           0.00895435001879      1.19015492078488      0.79924019640575
  C          -1.14659921231066     -0.73054788880097      4.63697448669179
  C          -0.78590762274707     -0.24111566793773      3.46356552658946
  C           0.39185612730040      0.66167409156269      3.24709097339931
  O           1.21812065286578      0.21209383359396      2.20028687414899
  C          -2.32585319418332     -1.63264705343480      4.83651783897352
  H          -0.62308978522608     -0.49247551440397      5.55120942574269
  H          -1.33314896986386     -0.50358891493123      2.56741191172590
  H           1.02540502731082      0.69601641822874      4.13626797974858
  H           0.02416969395652      1.67923569029768      3.03041160322917
  C           2.26295805399573     -2.04238587020741     -1.21580297934680
  H           2.88642270283478     -2.89971241642156     -0.96854977731264
  H           2.83909702755246     -1.34228649121141     -1.83138968687540
  H           1.38995818674370     -2.38141411224417     -1.78533567358415
  F          -3.15478559479548     -1.13342847119099      5.79420360287461
  F          -3.07701277833594     -1.75932172018455      3.71787897993230
  H          -2.03533523975463     -2.64756646121676      5.16045328286993
