19
Coordinates from ORCA-job NEB E -49.276258627520
  C           1.02899575915540      0.78744726261675      0.01985057876777
  C           0.14169254567473      1.87743988408525      0.02741416384121
  N           1.36924418286560      0.26166807842201     -1.30324031916513
  H           1.89801479398815      0.83643493101426      0.67053590734581
  F           0.30409206193271      2.75369503357654      1.05512771841725
  C          -0.18161894168706     -0.58330573775250      0.69354308737006
  C          -1.24931286027661     -0.51661868221164     -0.20346636348897
  C          -2.00440928611280      0.68552534182438     -0.24072142480970
  O          -0.94548039825455      1.92213512332639     -0.59610981586416
  C           0.62297059478216     -1.86149662695332      0.76483692821603
  H          -0.29631889076543     -0.15345829112199      1.68489017419529
  H          -1.25734994542339     -1.16763135928973     -1.06423627592860
  H          -2.36751831381609      1.07634510898845      0.70509814458336
  H          -2.71946898333969      0.78011491965686     -1.04722803372073
  O           2.53701767926532      0.03341878503980     -1.48846618656682
  O           0.47320050756674      0.12930525167128     -2.09696966797393
  F           0.89378219549773     -2.38294558240667     -0.43245713847414
  F           1.79309516270837     -1.67961227465596      1.39261005923864
  F          -0.04062786376128     -2.79846116583016      1.45898846401677
