19
Coordinates from ORCA-job NEB_product E -49.318502915740
  C           1.60070225211674     -2.18201283512924      1.47204066803072
  C           1.04905335644392     -0.79136931702689      1.22073173952045
  N           2.20495382167967     -2.70110391655600      0.19260126249869
  H           2.41532386324956     -2.11252528444393      2.20747095224739
  F           0.55048259829639     -0.29466939500922      2.37947232046270
  C           0.47469768232297     -3.08963611895423      2.02377435449635
  C          -0.69837145248574     -3.22840763393043      1.08574036916868
  C          -1.87761205084949     -2.69638604400332      1.34327034328413
  O           1.02516763172205     -0.16020701925720      0.23444764104670
  C           1.04106183116265     -4.47139825591164      2.36881493533143
  H           0.13613497700644     -2.65433794153640      2.97276822745633
  H          -0.51717479422567     -3.78766229127413      0.17993074433168
  H          -2.07228877905152     -2.13294373654583      2.24158759626005
  H          -2.69827089717473     -2.80619047474685      0.65768718056071
  O           3.38918187529665     -2.89039251564513      0.22038443205967
  O           1.46439417432252     -2.86258502513232     -0.73451492033639
  F           1.49005926911406     -5.13024151666312      1.29744077855026
  F           2.06929105459697     -4.37894114556768      3.22696724577875
  F           0.11691358645656     -5.23848953266644      2.94998412925170
