19
Coordinates from ORCA-job NEB_reactant E -49.312177486320
  C           2.25653042376360     -0.80300886038323      0.28180375055693
  C           1.23407183154895     -1.36610563375787      0.94934421552371
  N           2.24253800502466     -0.58199234032662     -1.11831318506091
  H           3.14855651445599     -0.49261826337188      0.79950515067510
  F           1.36408983416901     -1.53114062345853      2.27327982713990
  C          -0.52265944403295     -4.25343671162624      2.89651533559874
  C          -0.41059072181945     -3.77479540698001      1.66939937162479
  C          -0.86239515142796     -2.40551753073281      1.26508875419644
  O           0.10049889037115     -1.76053886432690      0.43485532907847
  C          -0.08473112676808     -5.63657558900229      3.27108729583569
  H          -0.94906917179242     -3.69623139790342      3.71712318855613
  H           0.03223322322291     -4.36494421722547      0.87738066149106
  H          -1.09231086004466     -1.78945721417320      2.14091052408953
  H          -1.74814237234930     -2.48162249488945      0.62730684922258
  O           3.23102085860838     -0.06091190870848     -1.58944599917991
  O           1.26516714842612     -0.92100041969802     -1.75055388778077
  F           0.50513179509417     -6.29570901925215      2.26740290649779
  F           0.78642227435866     -5.62074970020284      4.29131046648496
  F          -1.12306195080877     -6.39044380398060      3.67119944544976
