19
Coordinates from ORCA-job NEB_reactant E -30.533455578110
  C           1.44617292391082      0.90776101956892      0.57201710554549
  C           1.76380213471812      1.74813288039373     -0.40741335987489
  H           0.94537652899699      1.21137787334960      1.46793163296179
  H           1.71747248904758     -0.12411894357813      0.47555466306432
  O           2.42068550695044      1.29654117002473     -1.50116644120426
  C           0.91452769178109      3.80438063526668      3.07480480790689
  C           1.49934290260458      3.71257553552272      1.88163333890879
  C           0.74881962390265      3.65210364654998      0.58756809274797
  O           1.49421794901911      3.08764159919285     -0.46368227772653
  C           1.65215227214970      3.90278209837994      4.27007246589521
  H          -0.16248980016556      3.81137415466452      3.18711876684005
  H           2.57760399248004      3.70399076818069      1.79609083752777
  H           0.53823132299317      4.67452043196629      0.24800303342602
  H          -0.20721502601094      3.12456120924789      0.71075757737719
  C           2.71694447270958      2.22476579331967     -2.52433906154920
  H           3.23361207829472      1.65222081086835     -3.29195506918062
  H           3.36529439487839      3.02588347486551     -2.16020930157993
  H           1.80646409886123      2.66476306359065     -2.93936316009481
  N           2.24208444287830      3.98314277862541      5.24987634900875
