19
Coordinates from ORCA-job NEB_product E -30.557092443340
  C           1.54873903204100      1.93656842220950      0.17270621924212
  C           1.85371902662830      2.26750656685362     -1.28338384002634
  H           2.43022054616495      1.64984853166069      0.74422538774277
  H           0.83760500871407      1.10753644854954      0.17033712600433
  O           3.11405493792772      2.45731085043423     -1.67948027813157
  C           0.85544738755973      3.15385506310079      0.82719404879798
  C           0.31620651368045      2.80474167397371      2.18999755913103
  C          -0.95535117171046      2.91463401434907      2.52084661244692
  O           0.96893347854369      2.37438854099048     -2.08919762985044
  C           1.81282958895222      4.22780492187100      0.96797889617858
  H           0.04296590483239      3.49221941515793      0.17355467725945
  H           1.05208035002783      2.45102945429708      2.89992877379950
  H          -1.69705285137557      3.26959998163613      1.82419817703098
  H          -1.30819873282580      2.65259936228769      3.50324540971268
  C           4.22762407409446      2.41103074187367     -0.80587734984167
  H           5.08479685413043      2.66651817029912     -1.42663252244532
  H           4.37208673524298      1.40828974297455     -0.39499273177130
  H           4.13823755427853      3.14410987157009     -0.00143020880629
  N           2.60305576309308      5.04230822591112      1.10628167352660
