19
Coordinates from ORCA-job NEB E -35.949429785280
  C           0.68137820356567     -0.51186477089139     -0.53983738952493
  C          -0.54897202872787      0.12947981810335     -0.87638464063939
  N           0.48729737058693     -1.89170201203977     -0.08704737612274
  H           1.45978125300945     -0.49169313860695     -1.30093823409770
  C          -0.70914186580245      0.90791769443012     -2.14200373385810
  C           1.22001453986798      0.30026315649575      0.93076507828679
  C           0.16177291114233      0.12862280024862      1.85140879103057
  C          -1.13794048153254      0.60744372526718      1.43375280149405
  O          -1.50609749164899      0.18434382860823      0.01034785620332
  Br          2.93276691674192     -0.44885228734915      1.45812171493009
  H           1.40653539180214      1.29651538931578      0.53944512050494
  H           0.22076799749785     -0.63217599681194      2.61012204529868
  H          -1.20625930595195      1.69365435357594      1.33780881437228
  H          -1.95184673000820      0.22403764331833      2.04252908053856
  O          -0.30213786790904     -2.07293212563037      0.81115613130418
  O           1.09170506274885     -2.74250667969619     -0.70192701951195
  H          -0.95759387646389      1.94426050490828     -1.91042756190428
  H          -1.53658847552711      0.50390257305540     -2.72495812386743
  H           0.19455847660895      0.87128552369878     -2.74193335443694
