19
Coordinates from ORCA-job NEB_reactant E -35.986294061540
  C           2.01021062710811      0.18783990934725      0.19408927919261
  C           1.52604169425179      1.45379626203132      0.18724030527612
  N           1.96723484707344     -0.80788729372057      1.18603656193375
  H           2.52445235556865     -0.15553579068251     -0.69109499980203
  C           1.59734522403198      2.22920642521821     -1.09883824400763
  C           2.96009427734852      2.80019630902136      4.01487344789479
  C           2.58598628514784      2.07367612623873      2.97687868624644
  C           1.15932050334593      1.95352839291435      2.53801970791910
  O           1.01234397245155      2.21465956405095      1.14619828822830
  Br          4.75661247224216      2.92016478873610      4.57895880953445
  H           2.27896783604251      3.36475568048842      4.63151552301593
  H           3.31758726988878      1.52624383405717      2.39839250751998
  H           0.53591933888881      2.70747325399173      3.02332067147881
  H           0.78322934404641      0.95077009735351      2.78734337716757
  O           2.80705165862335     -1.68581518571325      1.11687902372767
  O           1.07633962308817     -0.78534171209128      2.02580840401715
  H           2.51864522039945      2.80993624218702     -1.12337359660389
  H           0.76479993546359      2.92672668494035     -1.13685878053784
  H           1.57111751498895      1.57420641163116     -1.96258897220128
