19
Coordinates from ORCA-job NEB_product E -35.988291646470
  C           2.68772078244183      1.48415114356041      0.95715774081603
  C           1.31975225212396      1.84820728735794      0.30909129636901
  N           2.90384113188017      0.03692411265568      0.65017000818344
  H           3.48310838416035      2.01771724700716      0.42622411432590
  C           1.42991623747492      2.16821868190248     -1.14433515256593
  C           2.71633344144331      1.82426436446129      2.44271442316455
  C           1.64880213055182      1.22923170568325      3.29224584072152
  C           0.94916298018074      1.94834787749315      4.15164784241134
  O           0.30828633137381      1.84124575615851      0.94840344269585
  Br          4.50988227681141      1.28524926009066      3.15650238875772
  H           2.71190044062609      2.91340095248338      2.54165340344537
  H           1.50705798074571      0.16301630947998      3.20580909445510
  H           1.09115388449135      3.01165533075420      4.26023224072990
  H           0.19307472328028      1.49972465533614      4.77035013974541
  O           2.76659061352434     -0.76734757581152      1.52704358100261
  O           3.18026247450693     -0.20434821581138     -0.49977792069074
  H           1.97666369176567      3.10106598036598     -1.27293372693332
  H           0.43979435778845      2.26831971877129     -1.58024572702971
  H           1.98839588482887      1.38245540806141     -1.65315302960407
