20
Coordinates from ORCA-job NEB E -40.446789104430
  C           0.56820704084909      3.06969239163721      0.66343087168146
  C           0.48701134975361      1.67997620003894      0.39734067047792
  N          -0.13670026926044      3.59866518420428      1.56173805177965
  H           1.36428131749877      3.55313000037460      0.06643224549761
  C           0.53969681782662      0.51265396935126      0.11943835663246
  C           0.27345053884020     -1.15620269884894     -1.70667676704185
  C           0.43790975895919     -0.88274535030135     -0.22782160690735
  C          -0.73346668358971     -1.45438000290180      0.58991654119606
  O          -0.60268090692455     -1.06739643988036      1.92203978011096
  C           0.99006779984425     -0.51096954924016     -2.62607078125212
  H          -0.42884299144621     -1.93714667715889     -1.96473349507601
  H           1.37329522945818     -1.36767634733388      0.09408798771628
  H          -0.68918010248836     -2.56873924698623      0.58244152708910
  H          -1.71692013310692     -1.18019259911241      0.18763271390787
  H          -1.39070575153910     -0.21361285350425      3.39834835259445
  H           0.07973703427243      4.56581411595582      1.75503417598207
  N          -1.59995052312652     -0.37081263055203      2.41119137225471
  Br         -2.25483345243178     -3.99432373654328     -0.60349129314814
  Br          1.03454763147081     -0.90756465609600     -4.45690417125538
  Br          2.40507629514041      0.63183092689742     -2.16337453223974
