20
Coordinates from ORCA-job NEB_product E -40.585648720730
  C           2.53167792935211     -0.89958799482808     -0.65052680806880
  C           2.23335142442684     -1.38788642647354      0.77403109452259
  N           1.29674291646076     -0.34031010793190     -1.17028538397818
  H           3.35515530000715     -0.15942821690055     -0.60160104159237
  C           2.95652750109734     -0.60298557860951      1.76230084481237
  C           2.95673918427264     -2.05596448698036     -1.59624307211648
  C           2.05598682832949     -3.25190553137876     -1.46171114479172
  C           1.04342537853264     -3.47947449103413     -2.27582832849071
  O           1.44333512178181     -2.24529210421303      1.05505433565380
  C           4.40899076165273     -2.45372762841954     -1.39958682568977
  H           2.86110928199031     -1.66343603609066     -2.61806224243860
  H           2.26619388493355     -3.92309278397971     -0.64055462482332
  H           0.40431759821164     -4.33387685104094     -2.14438645332800
  H           0.80625724889801     -2.81716317581928     -3.09120389818079
  H           1.46814968819904      0.20957486036343     -2.00401393610966
  H           0.83047558508405      0.24656002118842     -0.48934037796859
  N           3.52234854100293      0.06809293728668      2.49650666743924
  Br          4.85047557294744     -3.94138096944552     -2.58331103289682
  Br          5.62244978712728     -0.98008826264386     -1.84283280642529
  Br          4.78569046569223     -3.00522717304915      0.44059503447110
