20
Coordinates from ORCA-job NEB_reactant E -40.608982003450
  C           2.19817800780304      0.49211993691696      0.54481029229003
  C           1.91207755859571     -0.74579746087816      0.08005977929682
  N           3.04619193454336      0.73209529015116      1.58133211059765
  H           1.78119965489780      1.35064098815362      0.04124197335106
  C           1.08921681512075     -0.91045343230990     -1.04300467476434
  C           2.63410591818246     -3.45329043181152     -2.37142662987164
  C           3.11682602234609     -3.10745444820558     -1.18964597273522
  C           2.29629620857675     -3.08588248020320      0.06559972154388
  O           2.42264607395441     -1.86147765719529      0.74815231755417
  C           3.38042719959475     -3.47282252021545     -3.64580054386978
  H           1.59928067538781     -3.75631462386247     -2.48037339772471
  H           4.14032382682117     -2.77840637799534     -1.06381921856641
  H           2.67972883335178     -3.83522695913680      0.76667449317935
  H           1.24377986036974     -3.30839159661611     -0.15688452031821
  H           3.31210515290312     -0.06879818281251      2.13125518350391
  H           2.98974351199554      1.61392314928196      2.05894884489612
  N           0.42101952542142     -1.06292038457493     -1.96742361706536
  Br          3.37348611783559     -5.30880189596092     -4.37172607488351
  Br          2.48900101148321     -2.30056811557913     -4.95328377907578
  Br          5.22966609081547     -2.91117279714639     -3.51128628733802
