16
Coordinates from ORCA-job NEB E -29.200942595180
  C           1.12538479269583      0.24782803811245     -0.45736945631980
  C           0.37793480963167      1.43352205085886     -0.34956918283836
  N           0.75940474896648     -0.64414615130739     -1.53943238423984
  H           2.20592629592259      0.34203896672315     -0.40621823950258
  H           0.88084040514310      2.36837071852031     -0.11722330497041
  C           0.48456741820696     -0.75370734648920      0.99902726644283
  C          -0.87887593751809     -0.81662064374591      0.72419040118082
  C          -1.60980604097450      0.43237607131855      0.62188282180925
  O          -0.92374249157684      1.44225725639075     -0.29212480643371
  H           1.03781882552636     -1.68452453480982      0.98779689581710
  H           0.82927461561098     -0.07389727068033      1.76687295307270
  H          -1.29910734068160     -1.69194442842737      0.25793281136832
  H          -1.65149678483373      1.00035654172051      1.55404167171043
  H          -2.60266141661857      0.32424833404359      0.19384433431562
  O           1.68037446992838     -1.07699795025798     -2.20359289206933
  O          -0.41583636942902     -0.84915965197016     -1.74005888934302
