16
Coordinates from ORCA-job NEB_reactant E -29.235666854390
  C           2.13990365081956     -0.52468209540445      0.52679159967674
  C           1.35116996151384     -0.49853009153355      1.61589145771569
  N           1.67848902867129     -0.78356461303062     -0.78493205624613
  H           3.19935772822482     -0.34662118137352      0.59696484207769
  H           1.81310606680824     -0.29989937960469      2.58177740305955
  C           0.14074176653376     -1.68501951373102      4.98848652526487
  C          -0.21504326548840     -1.82035494060018      3.72544187467036
  C          -0.63314686077788     -0.68041924195307      2.84403033072946
  O           0.04791965286286     -0.69441006184340      1.59474236668406
  H           0.42412645227972     -2.53017663303120      5.59089975036123
  H           0.14489893514251     -0.72509969271593      5.47943890846457
  H          -0.21563474299626     -2.78680403137288      3.24073820251370
  H          -0.47557933479541      0.28022376042498      3.35010101348031
  H          -1.69000088957101     -0.77637407468885      2.57737977352291
  O           2.52200364227633     -0.77304331669839     -1.66431683911809
  O           0.49838820849603     -1.00022489284323     -0.96833515285692
