20
Coordinates from ORCA-job NEB E -45.643353063930
  C           0.50736152553606      0.87560436250998      0.09742288897608
  C          -0.75088527126117      0.49121461466520      0.57220993344617
  C           0.61235030181438      1.68595011074449     -1.17641806745799
  H           1.18640586160602      1.28674195702161      0.83835897798180
  C          -0.92062338814149      0.38101784827319      2.07718693537851
  C           1.28422433928073     -0.85775864712402     -0.48395651642104
  C           0.26487550940637     -1.78797847285752     -0.36919447222506
  C          -0.98491589251706     -1.45000296051978     -0.98645088940618
  O          -1.56120991524896     -0.22419772133314     -0.14900458194810
  H           2.15760490711479     -0.97481026488105      0.14155211454447
  H           1.50221996014151     -0.49254343849090     -1.47661422697554
  H           0.22597679657941     -2.41597856923450      0.51094664789769
  H          -1.78777059083073     -2.17321437082299     -0.88663277976288
  H          -0.91821851753015     -1.04535088815070     -1.99339241883713
  F           1.90694320519126      1.82646945658671     -1.55108255275622
  F          -0.02504325980511      1.14688892280678     -2.23646571473148
  H           0.20396761530448      2.69983748042947     -1.02554778655793
  Cl          0.28264232732862     -0.75425660000770      2.78676830963323
  Cl         -0.65106720584293      1.97200071310721      2.82151866975621
  Cl         -2.53483830812603     -0.18963353272235      2.48879552946537
