20
Coordinates from ORCA-job NEB_product E -45.688665109370
  C           2.44902496914409     -1.51843408008437      0.18530807410804
  C           1.17304803287962     -1.77130565241595      0.94871172648637
  C           2.19602244245994     -0.52390505415505     -0.95873751569141
  H           3.19533738930381     -1.05625714296940      0.83723563160735
  C           1.32273469971491     -1.69359869031336      2.48547833227732
  C           3.03223859349563     -2.85278995060169     -0.34994720296383
  C           2.11575576832632     -3.59549166665389     -1.27209935920462
  C           2.46917750571649     -3.99492781311285     -2.47879763769536
  O           0.10554271473201     -1.98803857393156      0.46181041606273
  H           3.26981288136297     -3.48121632279086      0.51229057657420
  H           3.96379566891613     -2.61720625349974     -0.86836145072023
  H           1.12595834956924     -3.80455360956299     -0.89253394168971
  H           1.79466541750923     -4.54241655067945     -3.11279443604768
  H           3.44706939600086     -3.79056013136106     -2.88335083152411
  F           3.37400003842328     -0.22882811327424     -1.55991448392934
  F           1.39049660121765     -1.00787015001447     -1.91762799706822
  H           1.76103750072143      0.42222531361731     -0.59671925036502
  Cl          2.72413252694429     -2.59996126815211      3.07196806642197
  Cl          1.55703229576092      0.04554391412305      2.83353357214968
  Cl         -0.13788279219883     -2.26760820416732      3.29014771121184
