26
Coordinates from ORCA-job NEB E -44.077370233510
  C           0.09635087952035      0.80589350319086      0.74141726783253
  C          -1.26604832473524      0.68485548392110      1.01007617142621
  C           0.58646054358149      2.13635751434420      0.22795759046520
  H           0.77235758825814      0.34346311700650      1.45109938925325
  C          -1.70298610139851     -0.36355544531923      2.02769409467198
  C           0.25507508520773     -0.35784860990521     -0.93372288307637
  C          -1.06177835732003     -0.59788208883709     -1.31609717181003
  C          -1.95063254061766      0.48135843604239     -1.45068543224597
  O          -2.15583149732659      1.07804239481119      0.16917908748722
  C           1.14146099106431     -1.52543749590117     -0.58162088352685
  H           0.77070648709964      0.44332932799982     -1.44714086213771
  H          -1.48698417828039     -1.56099111107169     -1.05909395343719
  H          -2.98315248083896      0.27255800357635     -1.69183631884569
  H          -1.57705997372335      1.39208733126432     -1.90256538353950
  F           1.85921223183780      2.06135250812375     -0.27868223395490
  H           0.63387824172071      2.84719250241462      1.06299041495025
  H          -0.05651581391253      2.54138440950967     -0.55804736791994
  F          -1.38261269227029     -1.62667902394667      1.62361818453048
  F          -1.05761571290593     -0.18683355114722      3.20634918203057
  H          -2.78614124198061     -0.33319927091438      2.20943328305654
  C           2.60226699881600     -1.13718649826519     -0.38992610063494
  H           1.07407974120485     -2.24985862987210     -1.39916121212032
  H           0.76013811891884     -2.02306145540345      0.31185675987098
  H           2.99465543362363     -0.67214161483585     -1.29134364911641
  H           3.19887686009480     -2.01933697607402     -0.17086929098526
  H           2.72183971436182     -0.43386276071149      0.42912131777586
