26
Coordinates from ORCA-job NEB_reactant E -44.107533758810
  C           1.20705524363562      0.03978983070017     -0.07331640854413
  C           1.10444511347616     -1.29181551969547     -0.16170928099113
  C           2.12733306340621      0.97104284550937     -0.80237008259682
  H           0.56600516488794      0.52058686139800      0.64909747799031
  C           0.03148104555536     -1.98194814645208      0.67206011195400
  C           3.98522156829305     -3.59818744064440     -3.13549931946155
  C           3.61187260035733     -3.19728297156121     -1.93236671592728
  C           2.90783508247026     -1.90506600294330     -1.65357415735242
  O           1.74460316783501     -2.21207568999475     -0.89062841366167
  C           4.71448753286238     -4.87079968464732     -3.41845591202271
  H           3.79361496383580     -2.97268764869528     -3.99880924107563
  H           3.78991185002764     -3.81050873720578     -1.06066993041322
  H           2.62097406737317     -1.41839828470051     -2.59274902579172
  H           3.56541654588049     -1.24406575928963     -1.07705014861686
  F           3.39667776211605      0.96570877441761     -0.24476363007831
  H           1.76777339346130      1.99995871148986     -0.71419017797026
  H           2.25758401177265      0.71712687128530     -1.85713569793601
  F          -1.05201525103671     -2.26137753565266     -0.09659458546387
  F           0.46742848953618     -3.16043096272718      1.15975219509363
  H          -0.31196801024521     -1.36767769864002      1.51776934963697
  C           6.07951349735571     -4.59342162494883     -4.04848459752341
  H           4.12004910808881     -5.47323393354825     -4.11085824478935
  H           4.84129463588602     -5.43856173767945     -2.49571644175371
  H           5.96618349467951     -4.04148131735487     -4.97891700674618
  H           6.59533093473511     -5.52634570199818     -4.26180833141406
  H           6.69439092375411     -4.00434749642111     -3.37201178454459
