26
Coordinates from ORCA-job NEB_product E -44.121484438290
  C           2.98073122217386     -1.57701125422493     -1.00852090665231
  C           1.63902862594866     -1.92234216598501     -0.43306524714399
  C           3.01885780680986     -0.06641045260544     -1.25920389432726
  H           3.76700015125930     -1.83889178976940     -0.29517578095274
  C           1.52473008925815     -3.24620713972502      0.36567614850801
  C           3.27418822303539     -2.32580108684179     -2.34813959268111
  C           2.03678990215498     -2.37212337076817     -3.19727594113562
  C           1.85293083633280     -1.63178670171802     -4.27373524528899
  O           0.65814515437191     -1.23446547416531     -0.53297500156481
  C           3.84859599232562     -3.73581792341476     -2.16542715066493
  H           4.03426349727805     -1.72352627329827     -2.85758247110777
  H           1.27650714090246     -3.07212219214650     -2.87566125728957
  H           0.95330619841373     -1.69417009543698     -4.86119239587439
  H           2.59922066050942     -0.93275790266946     -4.61626656502259
  F           4.29219623377480      0.31686151280083     -1.59030008829875
  H           2.73892532235522      0.49381485156088     -0.36196240581968
  H           2.36444128683374      0.21013809846515     -2.09072884445610
  F           1.08848599518570     -4.24160164419777     -0.44155361653800
  F           2.71010255097711     -3.64781928095874      0.87428459261745
  H           0.80490299163268     -3.14080878653651      1.19193336102057
  C           5.20334807979650     -3.75615519867988     -1.46620509695870
  H           3.96347977101521     -4.15686944316632     -3.16752917774646
  H           3.14881876097197     -4.37541054034839     -1.62989612684315
  H           5.88203988318931     -3.03873420948353     -1.92256739908169
  H           5.64456020800688     -4.74613779969090     -1.54899203972922
  H           5.11190341548669     -3.52554373699574     -0.40773785696819
