26
Coordinates from ORCA-job NEB_reactant E -50.598444543250
  C           1.62254362150223     -0.05917353301375     -0.01822562461069
  C           1.57807250787031     -1.32811762592875     -0.44447622344126
  C           1.60468697493795      1.17569184542035     -0.86199688149711
  H           1.65980326904109      0.14060596057649      1.03988112050896
  C           1.54700559211844     -2.47449699589438      0.53697551596301
  C           4.35366711553425     -2.72450823683417     -3.02223890059979
  C           3.11011322648215     -2.41651561277969     -3.35600214133602
  C           2.36548504983590     -1.27023393972598     -2.74238590633856
  O           1.57739617620527     -1.83539482042076     -1.67404819195660
  C           5.10153885186984     -3.91324578152652     -3.52527611489425
  H           4.89419125072073     -2.10503945442530     -2.31617266432574
  H           2.54597079255406     -3.03715514887774     -4.03652529934253
  H           1.68221589109818     -0.79806041672820     -3.45250166232488
  H           3.06421288071025     -0.53336801198400     -2.34371202018841
  F           2.85128876899249      1.52247971093851     -1.29733954259136
  F           0.84967647653916      1.03724158934250     -1.97770369987311
  H           1.21176205711151      2.03469441975117     -0.29801788570767
  Br          0.84493157107472     -2.05231652935484      2.28296776792140
  Br          0.51135525423251     -3.93597885115044     -0.19608972366881
  Br          3.40250881593305     -3.09181008599255      0.74330047528926
  C           5.39537629521642     -4.87868050096735     -2.37552256037885
  H           6.04609684469824     -3.58309263982520     -3.96491793536029
  H           4.52144154209918     -4.42242647634193     -4.29625001721675
  H           5.96508237261538     -4.38201125200679     -1.59344105878502
  H           5.96672744458585     -5.73085665011904     -2.73409874454335
  H           4.46694935642084     -5.24253096213165     -1.94228208070160
