26
Coordinates from ORCA-job NEB_product E -50.604453782020
  C           2.86147549815546     -1.63619810357461     -1.06528678488982
  C           1.55624834925263     -2.37667469195774     -0.91789538143282
  C           2.57616772140366     -0.12688275170119     -0.90854895805106
  H           3.55775587043131     -1.90316075222350     -0.26369904003199
  C           1.35978101375348     -3.15311699069483      0.39407797885141
  C           3.55259786403746     -1.90929604375791     -2.43403339984409
  C           2.68545746955343     -1.54203315684938     -3.60388508970979
  C           2.95990767375316     -0.54279258608462     -4.42073589496459
  O           0.66724656849639     -2.38350740228525     -1.71513158171749
  C           4.01350178721378     -3.37007578534717     -2.55731635965614
  H           4.44182937295990     -1.26965677658266     -2.45114837479303
  H           1.81705719757936     -2.16331142936794     -3.76686589415153
  H           2.33118116476375     -0.31295946585325     -5.26271733533031
  H           3.81863909245226      0.09267733695403     -4.27559735149109
  F           3.68782003490081      0.58594922601558     -1.19107900900394
  F           1.61562623976101      0.30283008472789     -1.74572720267931
  H           2.26985052691440      0.14181173023858      0.11575977383687
  Br          1.50601022256825     -1.92091559057531      1.90496437634847
  Br         -0.39810003627673     -3.96138403396760      0.39896300892023
  Br          2.69920609477343     -4.54228702410295      0.60256321524780
  C           5.28975494502656     -3.66097768644389     -1.77714326688223
  H           4.20267172128262     -3.56628258047737     -3.61466944868857
  H           3.21459935482278     -4.04623742597461     -2.24529994025014
  H           6.10362204554702     -3.04037178218603     -2.14435766233050
  H           5.57012999362643     -4.70338242249310     -1.90103624697948
  H           5.17086221324738     -3.47476389543515     -0.71305413032685
