22
Coordinates from ORCA-job NEB E -53.797491003460
  C           0.55257918580784     -1.53621175270168     -0.25443500865217
  C           0.26214283274641     -0.58219551871199     -1.16670424193750
  C          -0.40656282779315     -2.28936085960916      0.57369602643998
  H           1.57740882599133     -1.83014745544137     -0.11536849119365
  N           1.21670065476710     -0.03335718499143     -1.96204580794284
  C           0.13380640972051      1.86291046352557      0.36456154889513
  C          -1.19629198353222      1.36330014167048      0.49260281251562
  C          -1.80543558038191      0.37078910062872     -0.42411626827745
  O          -0.97025458320052     -0.07964162383961     -1.46241832086043
  C           1.26991896371757      1.45190359713828      1.20835670185171
  H           0.28407483277016      2.82780106380621     -0.10410551130820
  H          -1.87712926031820      1.74767625833343      1.24739249602917
  H          -2.66234797699513      0.82713058819111     -0.94383722609702
  H          -2.23115047483013     -0.45631907324901      0.16551148422031
  F          -0.90285038881154     -1.62642651480760      1.65339176776606
  F          -1.51517902253843     -2.68348986466213     -0.10423624472257
  F           0.14474621185308     -3.40578186777027      1.06193603769118
  H           0.90718832355474      0.55571981020247     -2.71403236126249
  H           2.12069239585039     -0.46294017882605     -2.02468459149689
  F           1.02825831718506      0.38976514850637      1.97833073793996
  F           2.38114883472754      1.14841857239178      0.48395326335410
  F           1.68853630970951      2.44045715021586      2.04625119704800
