22
Coordinates from ORCA-job NEB_product E -53.944851959810
  C           2.29753476900139      2.13897902367117      0.57978015535831
  C           1.89930168515990      1.98821414102566     -0.91805430348808
  C           2.03711147505050      0.81654816504785      1.29658015983146
  H           3.37862707522655      2.31369777486947      0.63174878753725
  N           2.63776932768815      1.09839195749988     -1.59901464366553
  C           1.53544455516289      3.33696107845202      1.19257909094594
  C           0.30434268883404      2.95749993222384      1.97841154687173
  C          -0.89768860589305      2.93493126654402      1.43674900868505
  O           1.02189806153030      2.64802738304861     -1.41255799466480
  C           2.46853799681533      4.17703147624812      2.05544770224431
  H           1.22753221345304      3.97149663174110      0.35056232760788
  H           0.46539284620775      2.69912085909398      3.01555711288326
  H          -1.05257057151168      3.18307156193374      0.40004198440232
  H          -1.76392547082716      2.65100975460442      2.00695406245384
  F           2.15716299148172      0.89049540904382      2.62196190262667
  F           0.83119816325742      0.30184150498728      1.03832469941547
  F           2.92906400630801     -0.11839774056790      0.90238361457148
  H           2.40075907931425      0.93698452172253     -2.56503074985647
  H           3.34712171073853      0.52196710778428     -1.18161076012195
  F           2.95032691524834      3.52166431736512      3.11898374950517
  F           3.54396674685825      4.59745991884242      1.36142502809988
  F           1.86089234089554      5.27380395481856      2.51757751875679
