24
Coordinates from ORCA-job NEB E -44.913104432090
  C           0.47729039162973      1.31548693346028     -0.95207897742818
  C          -0.13341689715271      0.89399915563786      0.16469877404056
  C          -0.13612746431802      1.30396182665336     -2.31021996952738
  H           1.47949660034580      1.71062141557570     -0.86782677359016
  C           0.57265025323766      0.98610800246446      1.39531928909628
  C           0.12249094697814     -2.13632532513269      1.32490609487386
  C          -0.79340409659600     -1.27530829822534      1.74602550261214
  C          -1.82660061673969     -0.71035195870200      0.81860003916871
  O          -1.44660394128346      0.49776839909658      0.16041481645879
  C           1.23281924816239     -2.69014270602302      2.14073080892715
  H           0.13740528444600     -2.47965090848494      0.29846569712724
  H          -0.80573595809940     -0.92958400512198      2.76877025825374
  H          -2.74566583220619     -0.47801443147487      1.36567120285095
  H          -2.05435630082461     -1.44237218023109      0.03134990938574
  C           0.07403404971976      2.63435631506433     -3.02947782632805
  H          -1.20040852511769      1.08187942397242     -2.22783198791028
  H           0.33651861369007      0.50750165713280     -2.89522443468725
  H          -0.35152970132084      3.44929107134083     -2.44900528872388
  H          -0.40713230767723      2.61546123394914     -4.00377408558018
  H           1.13442892102452      2.83048802851411     -3.17051401194297
  N           1.16587979692105      1.12153069068624      2.36816209117653
  Cl          2.77843288006825     -2.09509191873935      1.45533863471430
  Cl          1.16748795746204     -2.23973285816384      3.84433488031954
  Cl          1.22204669765043     -4.47187956324897      2.02316535671280
