24
Coordinates from ORCA-job NEB_product E -44.921631862720
  C           2.70785090387717     -1.81690536390302      0.54766812743684
  C           2.07598097164926     -0.64634277570413      1.29138725984723
  C           2.76839470973601     -1.47962225947603     -0.94855318317255
  H           3.71998725204267     -1.94204871566495      0.94361620211434
  C           0.73762606794731     -0.33257002304832      0.80926009906289
  C           1.85860635747557     -3.06662359558965      0.88241670692893
  C           1.32896710587331     -2.92523222827703      2.28981719540875
  C           0.04705093456174     -2.81923499928212      2.58537626048288
  O           2.60671587389062     -0.01409843651536      2.16410680311722
  C           2.63272445501740     -4.38359804645665      0.78330494647373
  H           1.01730782998548     -3.13275846657424      0.18372836197984
  H           2.08314923993730     -2.90209292873643      3.06401053058940
  H          -0.28731315081522     -2.69981206309914      3.60095984152265
  H          -0.71947963587068     -2.84129483434995      1.82825897199687
  C           3.56654725375355     -0.20317340435678     -1.19601241097478
  H           1.75387224491902     -1.35974830488877     -1.33635288366385
  H           3.23887340841290     -2.30319712857416     -1.48334235953995
  H           3.09132051015958      0.65684136304696     -0.72790159845624
  H           3.63926843742138     -0.01083892316956     -2.26316203512740
  H           4.57316019311435     -0.29792193429552     -0.79520744655833
  N          -0.30551069086378     -0.07877606914829      0.41286190306506
  Cl          4.09717342920174     -4.37009210159600      1.78829490249587
  Cl          1.58284902352014     -5.71232421472908      1.35697649182408
  Cl          3.10777727505314     -4.77393454561177     -0.88301268685349
