24
Coordinates from ORCA-job NEB_reactant E -44.914270521240
  C           1.67567547201480     -0.13748605487948      0.11344442377985
  C           1.29436519341297     -0.05701302246912      1.39651867160864
  C           1.66791880793033     -1.24823513102167     -0.88610766770548
  H           2.09221070875362      0.78169330567442     -0.28242738284590
  C           1.46999664575224      1.21813530976456      2.01537721086127
  C           2.14031890276774     -4.12070529568720      1.19764873039547
  C           1.97078701693214     -2.97024797352591      1.83054397631715
  C           0.63876989833808     -2.30762382712223      2.01454043577683
  O           0.73651376491941     -0.93295663658897      2.28710260089577
  C           3.43571629394253     -4.82238890192888      1.01460446173805
  H           1.30306008775066     -4.65379536021834      0.76767525272407
  H           2.80703757937039     -2.44268469148300      2.26761094591342
  H           0.16454100256702     -2.71339182351195      2.91746137167812
  H          -0.03191257513370     -2.50184446887088      1.16750282470702
  C           3.09202644995660     -1.53899287140994     -1.36516471175343
  H           1.07210323913639     -0.91925645380571     -1.74362685337558
  H           1.22503235354740     -2.16375340782601     -0.50432895942702
  H           3.54039850572382     -0.64696806253022     -1.79576917635035
  H           3.08103330635123     -2.32122999455563     -2.11952615125997
  H           3.71244653718914     -1.86988020020005     -0.53565402447901
  N           1.62548477492037      2.25109545357526      2.48475407162770
  Cl          3.40317631593780     -6.36808496335204      1.92361872505508
  Cl          3.65843020179695     -5.20834660638805     -0.71675337507901
  Cl          4.83716951612205     -3.88973832163894      1.55725459919731
