21
Coordinates from ORCA-job NEB E -43.425251571260
  C           0.26946145080992     -1.03743711093262     -0.59255802520481
  C          -1.14401676088719     -0.97109960172290     -0.84732079725484
  Br          0.76139343049213     -2.37327316174787      0.71844539192924
  H           0.90777784964999     -1.18475910612118     -1.46083165585570
  C          -1.65486788336245     -0.72820111401495     -2.16949451127481
  C           0.71503921233332      0.50409625173050      0.06433117345809
  C          -0.18852879025839      0.70478175886142      1.15029099166842
  C          -1.60073751593861      0.63318705663737      0.87668495395357
  O          -1.93485655661832     -0.68637331488808      0.16628722886885
  O           2.07645758847357      0.51080212079969      0.23272162109370
  H           0.49778970710161      1.11769570564873     -0.82059408146882
  H           0.14884084115209      0.54381758229353      2.16136060782735
  H          -1.95450434873891      1.37771491093250      0.15803764711905
  H          -2.22861406354378      0.61590790757700      1.76278592393905
  Br         -0.79069941293867     -1.63401562929869     -3.60402819945986
  Br         -3.54951844785579     -0.87419862856649     -2.27435245399031
  Br         -1.28503345392591      1.50577990458837     -2.65791177733128
  C           2.61496599883863      0.49408017016550      1.54095033004917
  H           3.69269055872260      0.44618896048353      1.40053195405388
  H           2.28954589176446     -0.37629747253636      2.11561416057524
  H           2.35741470472971      1.41160281011100      2.07904951730482
