21
Coordinates from ORCA-job NEB_reactant E -43.460737367970
  C           2.47551178073336      0.49217638381024     -0.44427509667096
  C           1.69872056669718      1.54186093165961     -0.71990465103679
  Br          3.02478453685507     -0.16161154121131      1.23326414913470
  H           2.86267071380704     -0.11130820322020     -1.25030612445785
  C           1.40477289244924      1.81183990930155     -2.17793037608741
  C           3.58659292984477      3.66688550659717      0.72061137272293
  C           2.86753748609180      3.01081574697465      1.62622003747514
  C           1.42508017115245      2.65923951300263      1.41046143858560
  O           1.08804949608976      2.46122691858127      0.04101382271283
  O           4.88386917015644      4.01563391956533      0.77386582325088
  H           3.15827250114282      4.00096638091183     -0.21657380121731
  H           3.28227369742973      2.68492616070364      2.56534757138632
  H           0.76636949466753      3.48451892538187      1.70407512904082
  H           1.15087731811257      1.77828488760097      1.99939340543245
  Br          0.62048759472851      0.25389056369109     -3.05324423356251
  Br          0.18235980340495      3.28716095498809     -2.37937650859257
  Br          3.06395868874098      2.26922154940140     -3.12899822801238
  C           5.61309886408194      3.65463992828271      1.92535214412661
  H           6.62952660650264      4.00461714831601      1.75770149392781
  H           5.61685090249079      2.56950032226202      2.06635915862295
  H           5.20243478482044      4.13331409339944      2.81934347321871
