21
Coordinates from ORCA-job NEB_product E -43.452775125880
  C           3.16261533165087      1.86445658030315     -0.33329649776084
  C           1.77485468878675      1.70696905146566     -0.87816488888508
  Br          3.48179272101781      0.08770834392076      0.45127617040699
  H           3.92352097219988      1.99195560716824     -1.10684704279440
  C           1.68185875751303      1.44012693833107     -2.37469690275263
  C           3.24620013003620      3.05497253850043      0.65886694978850
  C           2.57897970688813      2.75446436920057      1.97086282852390
  C           1.58971352215183      3.47731496006627      2.45865147976225
  O           0.77277154597338      1.81691680394801     -0.23342996540525
  O           4.56298436054995      3.54200187758421      0.74378125111839
  H           2.70587705637680      3.87732466446907      0.16593611575502
  H           2.95736181762184      1.89756465104284      2.51050693989824
  H           1.19477610665720      4.33255425701799      1.93599512480945
  H           1.12887442984911      3.23413004612622      3.40008496332214
  Br          2.93570222246369      0.12741611137893     -3.03055764179031
  Br         -0.11783491435367      0.93324594776141     -2.84905994839811
  Br          2.10531934069190      3.19554731613041     -3.16480407391071
  C           5.45143428973314      2.88999014267716      1.63221446729170
  H           6.40313440582391      3.40124628086478      1.50208938771066
  H           5.58020353107810      1.83179326328143      1.39199526060244
  H           5.12665997729013      2.99430024876140      2.67099602270765
