20
Coordinates from ORCA-job NEB E -40.473229406710
  C           1.11682191554949      0.00221199382013     -0.72732380438097
  C          -0.21760791763512      0.62062814273036     -0.54635399297598
  Cl          1.09533026899554     -1.07705969754051     -2.23236145798115
  H           1.82533725199773      0.78592204847051     -0.99406910627168
  O          -0.50322392592250      1.49766946084908     -1.50095972656982
  C           1.54180891249844     -0.65595117324266      0.57159249733203
  C           0.62599645969556      0.01644072425685      1.53975809524455
  C          -0.81321343587049     -0.34263000016676      1.40417973553760
  O          -1.24875614294066      0.17538819386015      0.15112986912068
  N           1.34218610155606     -2.13166114554732      0.63536538588668
  H           2.59594327374185     -0.49175050343501      0.79879753958683
  H           0.99528755387111      0.14543348223082      2.54651321633491
  H          -1.43438301880316      0.13825966716808      2.16320646105142
  H          -1.02049926919548     -1.42441378906002      1.41234606467047
  C          -1.84765953314103      1.93424939324024     -1.63703063408130
  H          -1.82166657362693      2.74727575666631     -2.35869339665105
  H          -2.24056100013263      2.28233780073722     -0.67982555040120
  H          -2.47576868058193      1.12133173505461     -2.00601062827462
  O           2.19430706049021     -2.75955111230524      1.22658272521281
  O           0.29032069945395     -2.58413097778684      0.23315670760979
