20
Coordinates from ORCA-job NEB_product E -40.542416950700
  C           3.70687491608247      0.95018323574213      1.56674748336570
  C           2.67253678588618      2.07579266980748      1.54201263652522
  Cl          3.42380297190638     -0.19864947814054      0.22970737797259
  H           4.69904666045398      1.38980390761978      1.39874581197627
  O           2.28033951481177      2.36178835881698      0.31463999118117
  C           3.69356053897510      0.25006237213444      2.92769154543822
  C           2.53374463830625     -0.68037770147594      3.11292909791874
  C           1.50095890871008     -0.39173388661413      3.88109531043298
  O           2.30297731018246      2.64161235284496      2.53575189069042
  N           4.99038601499687     -0.47537591291332      3.12624899347601
  H           3.66515309054655      1.04286913805326      3.68823789560197
  H           2.58963582320817     -1.60862669690686      2.56412429095327
  H           1.43971796517113      0.53545896991384      4.42670332601988
  H           0.67061308686984     -1.06779616290467      3.98300538237602
  C           1.33689084464633      3.42051429081137      0.18239373700673
  H           1.15150223592991      3.52650000205404     -0.88282625063453
  H           1.74542762866885      4.34314680646853      0.59810827093587
  H           0.41560458431945      3.17136043630856      0.71151803064741
  O           4.94432775952843     -1.55253354335631      3.65513687014428
  O           5.98999872079980      0.09530084173639      2.76782830797179
