19
Coordinates from ORCA-job NEB E -42.544215976860
  C           0.95316584335488     -0.15206513931782      0.20324335999984
  C          -0.06367000582815     -2.12035303328295     -0.90586991004910
  C           0.54149292421236     -0.33558307536409      1.60655848277834
  H           0.67530999535831     -1.11456222401150     -0.46689565375799
  O           0.73453477916769     -3.12408584631130     -0.75623476719353
  C           0.56583831624568      1.13159036633356     -0.48156638677671
  C          -0.83252039739653      1.70663387854004     -0.34864756290401
  C          -1.93479756619078      1.06041934627321     -0.67713921352291
  O          -1.13902237390616     -2.01500974699036     -1.38299734535119
  C           1.52020906595988      2.08001045905425      0.07257980904545
  H           0.81100528588387      1.03366598652755     -1.54859802293907
  H          -0.87853255814617      2.72685635224789      0.00889104103246
  H          -1.93356499469903      0.04792818142044     -1.04012350119100
  H          -2.89761338440696      1.53208977589782     -0.58055535765774
  Cl         -0.39932932555799      0.99527191510670      2.40202695394010
  Cl         -0.38596302527030     -1.84369748680620      1.85437427027763
  Cl          2.06211343859185     -0.47894018490234      2.57052436281634
  H           0.35738684829571     -3.98306404493499     -1.02778454722440
  N           2.24395713433185      2.85289452052009      0.49821398867749
