19
Coordinates from ORCA-job NEB_reactant E -42.660011464810
  C           1.67666628543215      0.29231612644752      0.07440281738322
  C           1.10080461430694      0.70472874799979     -1.06758624683413
  C           1.26059011390330      0.61022220459652      1.45372007200577
  H           2.55098901268981     -0.33761471176465      0.00870474596423
  O           1.54722520119152      0.30426980047322     -2.27333112997056
  C           2.20713939511461      4.27045355115462     -1.14339629212082
  C           1.24679433968843      3.51472772021046     -1.67185227837078
  C           0.16527122242182      2.87369893959166     -0.86428088653113
  O           0.01605778113427      1.49095320255286     -1.19779546398038
  C           3.22282261062713      4.85617842995732     -1.92451930697352
  H           2.25356157545606      4.47830079421910     -0.08191517440113
  H           1.22622244278996      3.30161208881481     -2.73252843207336
  H          -0.80728163745621      3.30682693525976     -1.11853398363698
  H           0.34714736866370      3.00349502896207      0.20748114909274
  Cl         -0.49409799913093      0.80158895177494      1.64294393178829
  Cl          1.79199189559602     -0.68702920723236      2.55447106227061
  Cl          2.05110192618863      2.13312300093542      2.03920968374446
  H           2.23828241645300     -0.36574407452735     -2.20280630796737
  N           4.05521143492978      5.33459247057430     -2.55088795938915
