18
Coordinates from ORCA-job NEB E -42.706436483180
  C           0.88578537640875     -0.05136736818627      0.97690487079078
  C          -0.53473300971574      0.08834508901862      0.95960166926079
  O           1.64020831789158      1.03951683256394      1.22329954424971
  H           1.31603015799294     -0.92922130168851      1.45104978428273
  C          -1.37427789251841     -1.16809684087941      1.15448673433099
  C           1.13637573446253     -0.39648368657812     -0.88347031794600
  C           0.56645203635157      0.74184729069869     -1.48648732766994
  C          -0.81264501011835      0.93021772371458     -1.42614268355657
  O          -1.03854857205086      1.08838153396043      0.35449252632627
  Cl          2.86501944577461     -0.58144364050167     -0.99960750602655
  H           0.63708906538925     -1.35276459443710     -0.98837410334852
  H           1.20802132855851      1.59783353663991     -1.64511390087942
  H          -1.46834275329814      0.07982085526573     -1.55019827252897
  H          -1.22145473937869      1.86574346203447     -1.77604468527404
  H           1.13220451281567      1.83453806894754      0.99510827046901
  F          -2.64764092644745     -0.88794607743582      1.42250085550529
  F          -1.38492660093019     -1.97320077053181      0.06174988928554
  F          -0.90461647118760     -1.92572011260522      2.15624465272889
