18
Coordinates from ORCA-job NEB_product E -42.724460699840
  C           2.09228012787368     -1.24293083561642     -1.77715120669975
  C           0.76464516410719     -2.00882139963981     -1.71403701445939
  O           1.90862659636740     -0.00831996208566     -1.12803126938537
  H           2.88628930769077     -1.83782835644746     -1.30160081102727
  C           0.64531817136938     -2.87307669921581     -0.42063673641899
  C           2.46271007225521     -0.96248092708620     -3.23618365603256
  C           3.73050714671018     -0.19049048062830     -3.35359576384424
  C           3.83448570903200      0.93440069043956     -4.03626964527425
  O          -0.13566180761329     -1.93351003845108     -2.48849139586421
  Cl          2.66190454400232     -2.56424002229230     -4.03068288657545
  H           1.63347933365849     -0.45557653455886     -3.73326308801907
  H           4.58332800161782     -0.62286061507398     -2.84962953570647
  H           2.99123256143559      1.36911459834972     -4.54576594087879
  H           4.76666160171217      1.46686971211597     -4.10526329947218
  H           1.86217154712000     -0.12990713490329     -0.17134726284358
  F          -0.57005821721921     -3.36531145504761     -0.22898903304981
  F           1.50934056436958     -3.89546806371839     -0.45303479955240
  F           0.96413957551076     -2.13786247614010      0.66427334510377
