18
Coordinates from ORCA-job NEB_reactant E -42.733299430680
  C           1.63718393980389     -0.14743706714813     -0.28809626245574
  C           1.64815805786068     -1.34766360904717     -0.87492037161208
  O           2.15313243459296      0.99348839056595     -0.83204533071445
  H           1.18779005421345     -0.06438106066313      0.69064068637164
  C           1.03939488359750     -2.53269336390361     -0.16459844484942
  C           2.97572443906283     -1.11022445232418     -5.36652635735388
  C           3.23283030327766     -1.52639114919156     -4.13866790519072
  C           2.76638724694225     -0.80316492027642     -2.91533818024956
  O           2.13035449724543     -1.76046500223276     -2.07827845866381
  Cl          3.54110685210696     -1.93036018741048     -6.76186994077704
  H           2.41192234259045     -0.21659966104702     -5.58805215200617
  H           3.79007772164744     -2.43285896057133     -3.95722016744953
  H           2.06990709122066      0.00085227475143     -3.17241809638693
  H           3.62667129983444     -0.37091699111114     -2.38828144665645
  H           2.03238857458353      1.72786504581922     -0.22205298353925
  F           0.01702107266287     -3.06162612626388     -0.84891093678366
  F           1.92647603585706     -3.51829499446759      0.02107505697598
  F           0.55937315289995     -2.22332816547822      1.05046129134106
