20
Coordinates from ORCA-job NEB E -38.287287393270
  C           0.69629912559082     -0.39345929345995      0.60981994477958
  C          -0.60265586926783     -1.11930592087291      0.80787076031789
  C           0.76102671657724      0.88639674623632      1.45101442231461
  H           1.53625322717997     -1.00874417232506      0.93954103141648
  C          -0.61284186957541     -2.35985700755987      1.42071393946746
  C           0.74192338014475     -0.15635758000882     -0.92358359557573
  C          -0.68596297091398     -0.18405396434920     -1.35080191974148
  C          -1.83866550356003      0.21158717534604     -0.50342052484532
  O          -1.77350820907488     -0.41106123831663      0.74757214255768
  N           1.46027116655072      1.02201606355267     -1.35280103229601
  H           1.26827868791681     -1.01884424366219     -1.34772776131802
  H          -0.84309257961509     -0.00346459817524     -2.40950784055106
  H          -2.76760841767948     -0.14793338527705     -0.96359409193767
  H          -1.93726245932030      1.30567324165549     -0.40981441327811
  F           2.02655791315349      1.35348989886956      1.51135108781606
  F           0.01565275209949      1.89795437400957      0.94221746822806
  H           0.41604252642588      0.71167461933994      2.48299071667171
  N          -0.59861919013830     -3.42361096218473      1.87155727950544
  H           0.93412394269078      1.87662310233214     -1.22357924811805
  H           1.80378763081538      0.96127714484995     -2.29981836541351
