20
Coordinates from ORCA-job NEB_reactant E -38.338917198360
  C           1.96007173277828      0.00053335049133     -0.15388439092430
  C           1.54055547420955     -0.93454971562477     -1.02524606956614
  C           1.59690802568515      1.44856374973407     -0.07070433974458
  H           2.66126850896823     -0.30986478059430      0.60681591749082
  C           2.04127762024950     -2.25821882848962     -0.79209850862550
  C           1.90323097182563      0.10000247884988     -4.93026147112156
  C           1.73074964796118      0.56745435360445     -3.69245402770653
  C           0.51456139581305      0.26414065733304     -2.88340976824970
  O           0.69958153446193     -0.90955602685566     -2.06848547986008
  N           2.96729453818859      0.39601934254353     -5.74046881848298
  H           1.13407225391631     -0.49737795672861     -5.40202398189049
  H           2.50166646455015      1.15587460226704     -3.21896453621503
  H          -0.32067194046767     -0.02124264857699     -3.52676015155268
  H           0.21821153950909      1.11841891735420     -2.27181922363038
  F           1.97921609666753      1.93905897713218      1.13212583302046
  F           2.25107058906446      2.20756286250502     -0.99774604229289
  H           0.51975430256107      1.65781012989549     -0.17582028703959
  N           2.44542510087001     -3.31262580210389     -0.60837190890848
  H           3.77259054959815      0.79842905748265     -5.28727426366167
  H           3.17606559358981     -0.24733272021905     -6.48464848103874
