20
Coordinates from ORCA-job NEB_product E -32.654751825190
  C           2.91755564589386      0.33672963516416     -1.73827455838207
  C           1.61310698125476     -0.18997003774267     -2.30555155440021
  I           2.53709862863380      0.60072356004377      0.38590428336570
  H           3.69841462962143     -0.42404707981768     -1.78977859502578
  C           1.33080903162671     -1.64321005056511     -2.01749528066655
  C           3.40962793495912      1.60957572517220     -2.42941417364755
  C           2.90176099512836      2.88771362618089     -1.83208330477485
  C           1.75063545169589      3.44188843389882     -2.15946182666580
  O           0.89068342798660      0.49968373398548     -2.97725385593958
  F           4.79141313893835      1.60495809308515     -2.39311952808307
  H           3.13233402732788      1.53945429785962     -3.49125052015269
  H           3.56138131698020      3.32189797323808     -1.09343150382368
  H           1.09915127502794      3.00038961257206     -2.89504749531365
  H           1.41020008611918      4.34534957321563     -1.68477926491792
  C           1.87293291392649     -2.47916656644074     -3.18198514479893
  H           0.25093318904441     -1.78225365974519     -1.94914872870899
  H           1.79490718998048     -1.96194927372187     -1.08405293729874
  H           1.41300799922921     -2.16650597363817     -4.11637725533439
  H           1.64674560119778     -3.52924642452829     -3.01746332922921
  H           2.95180053542755     -2.36921519821617     -3.27293542620203
