20
Coordinates from ORCA-job NEB_reactant E -32.641283748890
  C           2.03304842423983     -0.14232988792114     -0.33246178582832
  C           1.49168661486065     -0.14922122068768     -1.54654598216619
  I           2.76109785019698      1.42576171403430      0.88953142927020
  H           2.12778639431541     -1.08005766062291      0.18459883338099
  C           1.07281228019258     -1.48194824124395     -2.13334841299496
  C           3.71582351511457      2.67585822921188     -3.79959614504037
  C           3.23079255373209      2.12875446642087     -2.70252459435259
  C           1.76856758995843      2.12677692812123     -2.37947993910720
  O           1.21546338453445      0.82231003751436     -2.44710897554774
  F           5.02552082733118      2.65723556716371     -4.08074453441524
  H           3.14614880451632      3.19410767222605     -4.55805771231294
  H           3.89570557886303      1.62836519732992     -2.01440544174985
  H           1.21473724630960      2.68899140271156     -3.13592779895450
  H           1.58707420164279      2.58353263554973     -1.40212032684491
  C           2.17615759346211     -2.02995254609909     -3.03748872115183
  H           0.17079375629415     -1.31365487802031     -2.72297237134494
  H           0.84844109350723     -2.19437641888994     -1.34058317651806
  H           2.40490738748862     -1.31718040144759     -3.82591323452216
  H           1.85707031846066     -2.96288510847718     -3.49493226232287
  H           3.08156458497930     -2.21618748687382     -2.46431884747651
