30
Coordinates from ORCA-job P E -34.005074299310
  C          -1.55877678821065      0.35404415614133     -2.40865237796461
  C          -0.27259398886216     -1.75243981452595     -1.23445163905917
  C          -1.69870266087222     -1.93301452091781     -1.64560701249674
  C          -2.32387141165598     -0.91805423221120     -2.21848878320367
  C          -0.86758706305857      0.71968248292002     -1.08240632513525
  C          -0.10577094892284     -0.44943964436618     -0.42319504277172
  H          -2.17857149240551     -2.88236920073480     -1.46428131611906
  H          -3.35455640497473     -0.94867610574161     -2.53252171073529
  N          -2.44966101376055      1.44048729236940     -2.78767211944387
  H           0.05900906234865     -2.60359588906590     -0.64245182198260
  H          -0.76885337621134      0.17173949559919     -3.16757318531934
  H           0.34745379147512     -1.69857317452856     -2.13379236001947
  H          -1.65297804833810      1.07305091972240     -0.41344453860185
  H          -0.57662828370482     -0.63877889876078      0.54809353205172
  H          -0.20413528448170      1.56234075689041     -1.27339724285758
  C           1.38004393714491     -0.11790111577838     -0.11839262705902
  H          -2.92295683833019      1.22152047626257     -3.65758720528330
  H          -1.92633094571846      2.29862757672385     -2.92460422451289
  C           1.43772684830784      1.05589204079405      0.86790688431626
  C           2.05717659974278     -1.31786738737499      0.55694137138569
  C           2.17731984171671      0.23952074208503     -1.37543674416959
  H           0.90051382400787      0.80981900316230      1.78116088327250
  H           0.99873668077798      1.95685856731429      0.44932283445875
  H           2.47079795809050      1.27607048802690      1.12906477239626
  H           1.46526410567736     -1.67128476067315      1.39844550363765
  H           3.03719523787034     -1.02800406910938      0.93048089714911
  H           2.19792633503441     -2.13924041262876     -0.14011548022457
  H           1.75402422402831      1.09760075687522     -1.89033531334722
  H           2.20917294941766     -0.59579827864700     -2.07040898140594
  H           3.20144315386738      0.48504275017746     -1.10198062695516
