30
Coordinates from ORCA-job R E -33.931708942070
  C          -1.68932328543030     -0.38621688925938     -3.09451369531852
  C          -0.14173493312476     -2.91713380468683     -2.42760556420927
  C          -1.35978936906041     -2.58856559383196     -2.00332415347202
  C          -2.12093483427547     -1.40943217881454     -2.34643126654147
  C          -0.61805453164412      2.07077698154206      0.37902768435737
  C          -0.09406536649892      0.96110279169773     -0.10614014539021
  H          -1.85501976679018     -3.25436662450902     -1.30615867412584
  H          -3.12287631388591     -1.35402353042437     -1.93583839415405
  N          -2.45160797970775      0.69980645075987     -3.45292569017360
  H           0.34432791635848     -3.81588761021289     -2.08945988746490
  H          -0.69787451618858     -0.39238791653563     -3.52214928532349
  H           0.40743136207975     -2.31818926506877     -3.13099656100673
  H          -1.62902763819715      2.36279293847919      0.14555368240002
  H          -0.69219056745739      0.32850651089172     -0.75205886916486
  H          -0.07570282734476      2.73881785404042      1.02608457173605
  C           1.29375175125365      0.42632796014383      0.13346570839101
  H          -3.29692968038135      0.83048873086721     -2.91827217693598
  H          -1.95689148893972      1.55078263893565     -3.66485236893354
  C           2.07243467939288      1.23692104802332      1.16943579142079
  C           1.16326829664948     -1.02498948417617      0.61110245337856
  C           2.04960327374293      0.44911582564888     -1.20048548701397
  H           1.54383922885987      1.25145299950024      2.11963991941672
  H           2.21710142826645      2.26025244770516      0.83117916963158
  H           3.05194467927359      0.79113370530397      1.32884382187802
  H           0.59518121040487     -1.06920024647388      1.53803520913050
  H           2.14706222572759     -1.45451789445102      0.78827398857570
  H           0.65185038200828     -1.62774991619501     -0.13698662228400
  H           2.15698663965312      1.46974305133757     -1.56255359263821
  H           1.51555085932106     -0.12821326760642     -1.94895569551212
  H           3.04174916593476      0.01983228736909     -1.07836387065358
