30
Coordinates from ORCA-job TS E -33.910772149930
  C          -1.64216826492671      0.29355603661505     -1.88087479259158
  C          -0.50166486104146     -1.88574182910906     -0.39667648836446
  C          -1.82894459938418     -1.81805229661748     -0.69718432010092
  C          -2.38879048019685     -0.76549428938232     -1.43512172176279
  C          -0.98917806696334      0.94829531257902      0.22495416888586
  C          -0.21808479680761     -0.00896621673940      0.81757805137568
  H          -2.51525260096797     -2.48619220324656     -0.19355017931620
  H          -3.46729074254235     -0.68577886621859     -1.48006794679128
  N          -2.21721371164680      1.36420930243292     -2.53775371521336
  H          -0.15239866929413     -2.67517141679973      0.24791173737141
  H          -0.58838075991822      0.18467365874691     -2.07438866465114
  H           0.23245364311107     -1.46577304142817     -1.05631789898634
  H          -2.02419685932299      1.05450299174942      0.49790340715302
  H          -0.66097172131213     -0.59482378808573      1.60994412533107
  H          -0.54416007176814      1.79348928300349     -0.26933679949878
  C           1.29145079058467      0.14164464172307      0.94025627721574
  H          -3.17355363859903      1.56046312558161     -2.28138111605127
  H          -1.64979268052727      2.19278323941211     -2.61869438332169
  C           1.52020602783868      1.20223976385983      2.03427371772296
  C           1.96162382461640     -1.15542409036094      1.40305225039280
  C           1.96946695558072      0.62030597272867     -0.34597386151158
  H           1.07349468042360      0.88151124237217      2.97274264917613
  H           1.06987600350679      2.15027459632146      1.75034526654895
  H           2.58512078826361      1.35863150797419      2.19580337879362
  H           1.43506562916409     -1.57606448594367      2.25676548901058
  H           2.98915711557889     -0.95619800182291      1.70246769111350
  H           1.98246949331211     -1.89505354053945      0.60866438414698
  H           1.58035877502224      1.58377363613644     -0.66394695477921
  H           1.83254821589021     -0.09272279731628     -1.15517003765018
  H           3.03875058232607      0.73110255237394     -0.17622371364751
