33
Coordinates from ORCA-job R E -37.101841013520
  C          -1.34013451081526     -0.24773742176018     -2.85244935236562
  C           0.62205800934149     -2.30616120387033     -1.84535157047882
  C          -0.67193549315525     -2.49710723905057     -2.10181399764034
  C          -1.64551455625068     -1.51511638303572     -2.51406847008442
  C          -0.41983180674786      1.89166352394404     -0.02965783663314
  C          -0.37048642828565      0.62930882633880      0.35096292460247
  H          -1.07018318423429     -3.49889995913952     -1.98678294875404
  H          -2.66624592691341     -1.86722961134462     -2.54316901575359
  N          -2.18158718878840      0.77880171702535     -3.16678150688544
  H           1.25904059087827     -3.12189363967826     -1.54935373020399
  H          -0.29969512807165      0.04523567157412     -2.84754206086425
  H           1.09374964849894     -1.34127583841619     -1.91850453877121
  H          -1.17232019197700      2.25001763499539     -0.71087518967918
  H          -1.09444598312951     -0.08027815213593     -0.02703257249785
  H           0.29190502683023      2.62082503789451      0.32400428360727
  C           0.64495674764752      0.06305024421053      1.28474250440963
  C          -3.61455058041266      0.55941789236099     -3.24465203009714
  C          -4.40089986818590      1.82793488669964     -2.91573554745515
  C          -4.03287992881606     -0.00107042757103     -4.60922387273004
  C          -1.64001051760506      1.94138740052975     -3.82545867185736
  H          -3.84977151002642     -0.18135776084786     -2.47356157473906
  H          -4.32132064111500      2.56391151406655     -3.71170605413644
  H          -4.04487378794025      2.26588090743523     -1.98629956468680
  H          -5.45122963701322      1.57549633523873     -2.79380505151815
  H          -3.87277740800304      0.73600980103934     -5.39284237625699
  H          -5.08675088393594     -0.26618558664916     -4.59845725885673
  H          -3.45058103708109     -0.88915771610056     -4.84255021225761
  H          -0.55762647436942      1.94835448453897     -3.71622446645907
  H          -2.03205993300119      2.85599392568485     -3.37722636533862
  H          -1.87489703967594      1.95110952112926     -4.89578672176987
  H           1.35799205118600      0.82190120111148      1.59863858700252
  H           1.18010805511870     -0.75231644628469      0.79917082892649
  H           0.15486951604899     -0.34829313993289      2.16699343022256
