33
Coordinates from ORCA-job TS E -37.085041026180
  C           0.39994365900212     -0.40487771599387     -0.59052480524671
  C           2.04378817399329     -2.03165652694531      1.11736762652043
  C           0.91394594400883     -2.50321565525233      0.51151121458559
  C           0.09696558050372     -1.71555846931829     -0.31257404995799
  C           0.35883923856501      0.27285120221376      1.68390499362609
  C           1.23728381951472     -0.46933568547105      2.41431262177692
  H           0.51166161581413     -3.45627049053392      0.83049620280507
  H          -0.86151863169621     -2.12490134578532     -0.59681313160061
  N          -0.38165180572230      0.47419313488238     -1.28330087210125
  H           2.58177019005517     -2.67482938869555      1.79644759144194
  H           1.43026806390803     -0.09361357980561     -0.52319586598559
  H           2.64229828714895     -1.27049572847812      0.65067322302454
  H          -0.68979038015614      0.04008322874172      1.67014257239631
  H           0.84638477437575     -1.24486586422152      3.05768869452734
  H           0.64563844257550      1.23798595363040      1.30353399188209
  C           2.55710774421790      0.11340376609602      2.84276688862251
  C          -1.82777050130538      0.34852213970783     -1.31336905376357
  C          -2.53622955173681      1.57421407899773     -0.72962401606483
  C          -2.31161996557473      0.06226842974721     -2.73804906389849
  C           0.18813722238515      1.74217642162840     -1.66287232427444
  H          -2.08293915266325     -0.50818397634694     -0.68400832329607
  H          -2.41722819609594      2.44642090541811     -1.36703865245824
  H          -2.14400437147546      1.80322247687526      0.25839893614757
  H          -3.59893215716664      1.36495624145695     -0.63598943812027
  H          -2.10842797420130      0.90552536387649     -3.39391593053158
  H          -3.38252465703472     -0.12308286020737     -2.74055284160107
  H          -1.80315303069289     -0.81314803922326     -3.13405511663812
  H           1.23380605491148      1.60635811446783     -1.93721194793046
  H           0.13497809333890      2.48261394566823     -0.85490651210538
  H          -0.33799721783909      2.13809889810495     -2.53034690914346
  H           2.97542280177062      0.74816389652749      2.06427271881647
  H           3.28042614164333     -0.65741012017251      3.09576143253935
  H           2.40512174562825      0.73038724841022      3.73107014600590
