19
Coordinates from ORCA-job NEB_product E -38.039878944070
  C           1.64807739316075      1.84850987211070     -0.32313117239034
  C           0.85535819548824      2.14006876610630     -1.62314296119250
  F           0.82873869693614      1.34144944207100      0.64579285041542
  H           2.45173614586540      1.12062955789631     -0.47165350288884
  C           1.58809563728170      1.73345480281974     -2.92491375280742
  C           2.13857778590361      3.26982332534925      0.00392081268679
  C           3.51968960060912      3.33085744582194      0.57563858889184
  C           3.79952375034228      3.76836904951202      1.78889256809683
  O          -0.31129325599070      2.42325893011228     -1.64774127051571
  N           2.00383278194654      3.90166898368462     -1.31800926329549
  H           1.41183690949728      3.71685117020317      0.68737272811745
  H           4.29985834657745      2.97417297623703     -0.08512704531989
  H           3.02965211289500      4.11779407336277      2.45663407900884
  H           4.80689751390805      3.78672798291672      2.16715697014334
  F           1.45077118480877      2.68007907653233     -3.87434606950443
  F           2.92490748665093      1.57493172874612     -2.74105604093008
  H           1.18379685922526      0.78674823140033     -3.31875773054793
  H           2.86337293518659      3.86144572676867     -1.85410858646619
  H           1.66346991970759      4.85365885834869     -1.29192120150169
