17
Coordinates from ORCA-job NEB E -29.454434850670
  C           0.03597206013340     -1.44370763597055      0.21888686897322
  C          -1.33309629497072     -1.30016225115217      0.16074190981371
  H           0.49595337551504     -1.35180212366506      1.19353701707593
  H           0.51556246154605     -2.15301359402999     -0.43961939379011
  I          -2.30224895648223     -1.95164492801378     -1.67522253888961
  C           0.55533738071292      0.36869269617905     -0.43462221417312
  C          -0.18068135562818      1.18030257601600      0.41546854849191
  C          -1.60599762210897      1.08553748881412      0.37995630400189
  O          -1.96019105236428     -0.41618591147135      0.83376615823798
  C           2.05998852294347      0.36253061499965     -0.35088944695677
  H           0.19936406073923      0.22261340425848     -1.44948126249050
  H           0.28223540108931      1.50432440517265      1.33676094233947
  H          -2.06316128593960      1.12283874461623     -0.60804039689554
  H          -2.14809841339059      1.67734678231865      1.10745955968492
  F           2.48580010756951      0.31297128583150      0.95222270833192
  H           2.47088911221186      1.28404548462200     -0.78144235861326
  H           2.49237249842377     -0.50468703852543     -0.85948240514204
