17
Coordinates from ORCA-job NEB_reactant E -40.944851473960
  C           1.42913933210464      0.00503210428643      0.26632022820902
  C           1.62295036095224     -1.20624906755248     -0.25183718466570
  I           0.85653483781029      1.57878269127446     -0.96986672332427
  H           1.51115146076743      0.24308581295993      1.30896312207879
  C           2.05387361617346     -2.37605869958663      0.60150021403429
  C           3.30128354285604     -4.22790105287318     -2.58146011636807
  C           2.25003656131549     -3.42878105172491     -2.61460954392012
  C           2.34236116231844     -1.94393511039913     -2.44267108634459
  O           1.35021117328844     -1.41373352268256     -1.56143393608785
  Br          3.16933318625040     -6.09033119432257     -2.85280157583227
  H           4.31194867744304     -3.89289591142178     -2.40927353063639
  H           1.25699528263556     -3.81432885871828     -2.79501585543528
  H           2.11298711701242     -1.46566328056209     -3.40281632866322
  H           3.34517049451148     -1.63974011782181     -2.12799921589037
  Cl          3.79605661678309     -2.71698485570959      0.35761131865969
  Cl          1.82432995237774     -2.06710688834370      2.33490803237512
  Cl          1.11343662539978     -3.82549099680211      0.18168218181120
