19
Coordinates from ORCA-job NEB E -34.504159591490
  C           0.39454073574888     -0.06424052954211     -0.21776804705880
  C           0.56077988377790      0.83260822152261      0.89496512146302
  C           0.44593606345076      0.39547975525602     -1.56854896696701
  H           0.15049396789016      1.45682848205084     -1.41575886382304
  O           0.62131100642847      2.13835445306336      0.49688056016835
  C          -0.06017536573622     -1.45924161032060      0.02347876542655
  C          -0.89315122685370     -2.07200896603556     -1.04412604673566
  C          -1.98805903819083     -2.77337578697267     -0.82048290431039
  O           0.65909047584079      0.48565323697789      2.05109453840680
  Cl          1.50614392207410     -2.41081629777829      0.07929209640161
  H          -0.49347056014563     -1.55731052540185      1.02073639356738
  H          -0.51184968152126     -1.90955598546410     -2.04955474585840
  H          -2.35930098712818     -2.94805723740545      0.17608942202724
  H          -2.55493551713592     -3.20416475500784     -1.62701690472733
  N           0.50727175391478     -0.01697526093421     -2.70480717072894
  C           0.94488740461854      3.09604655605298      1.49308938193706
  H           2.00947615098004      3.33247379592539      1.44170365747122
  H           0.70872962510760      2.69185197952675      2.47961225226260
  H           0.35228138687973      3.98645047448683      1.29112146107774
