19
Coordinates from ORCA-job NEB_product E -34.608079197960
  C           1.11953324745641     -1.17452215401702      1.31103049106125
  C           1.74880420415156     -0.39366672320461      2.47620417568183
  C           1.56390178223745     -0.68640528175039      0.02673876787810
  H           0.02999796582472     -1.05948991041873      1.38100567242462
  O           2.66979425403959      0.45086760522599      2.04981074535940
  C           1.45271921564778     -2.66704937123457      1.49657488518522
  C           0.84040558501521     -3.52887483400425      0.44599143236205
  C           0.09337808352369     -4.58267393831741      0.71926280953517
  O           1.42285556597027     -0.57260096435919      3.61712276163706
  Cl          3.24795590442853     -2.85620944502187      1.42311978845886
  H           1.15326333236505     -2.97644376934686      2.50129883819600
  H           1.06609136704018     -3.24516139285019     -0.57277981383282
  H          -0.12657322922001     -4.87607884371781      1.73262637958506
  H          -0.32746100995792     -5.19277837975363     -0.06042966326474
  N           1.90410032755425     -0.31291273384990     -0.99724679187013
  C           3.37807336727114      1.22063669243654      3.01618206773218
  H           4.44196949162372      1.08311914623681      2.82876195098349
  H           3.12002315093345      0.88867185691727      4.02295764533242
  H           3.11006739409493      2.26917244102981      2.88556785755498
