19
Coordinates from ORCA-job NEB_reactant E -34.589047512260
  C           1.74261001458821     -0.12466597003624      0.04000980785315
  C           1.63922110101414     -0.21592101106367      1.38476864743999
  C           1.31403944186498     -1.03976589321794     -0.91867978738856
  H           2.21184759593381      0.76754739068278     -0.34724235135944
  O           2.12672047116062      0.81044557083325      2.10298338369843
  C           2.09617815840455     -4.35483005800125      2.01677568406214
  C           1.78335880802682     -3.32081274716842      1.25349042060289
  C           0.64093221541923     -2.40395197597042      1.57876853857108
  O           1.09399938643244     -1.17974897370700      2.14614829864493
  Cl          3.40754736347915     -5.40151222452827      1.67288545052935
  H           1.54337630102163     -4.62801164749405      2.90356766067381
  H           2.36032280372587     -3.08186312472400      0.37284768403406
  H           0.00955043951545     -2.83817766704634      2.35765877108431
  H           0.04202916284482     -2.20871395635275      0.68438622919469
  N           0.99049121752508     -1.75993122516321     -1.75625632910041
  C           2.03235533926761      0.74418469947434      3.51431889235962
  H           2.49483897028830      1.65979944694945      3.87610565904513
  H           2.56666570166143     -0.12500874921300      3.90444652918334
  H           0.99001550782586      0.69823811574673      3.83741681087148
