15
Coordinates from ORCA-job NEB E -27.322920334740
  C           0.79671712317987      0.53829963352784     -1.10320917118674
  C           1.19231198012447      1.11142642098353      0.09430797119248
  H           1.54526623726181      0.07699236836106     -1.73017796135030
  H          -0.00259174198622      1.02960672303771     -1.63914152662122
  Cl          2.74679878247895      0.57898835603715      0.75589233094181
  C          -0.28099331483166     -0.94339261290409     -0.32581713540640
  C          -1.14074253081625     -0.27365816755952      0.54684905291859
  C          -0.55811675833505      0.42910471489529      1.63603419497043
  O           0.35701846318475      1.59320224054899      0.92747521657818
  C          -0.82965334232640     -1.56653224087241     -1.48052617017233
  H           0.56926593467422     -1.47798138275649      0.08926724086559
  H          -2.10527264463401      0.04502806378866      0.17851881211824
  H           0.20384922116132     -0.09579569584034      2.20721277139806
  H          -1.22293525535149      1.01580611633743      2.25666162650782
  N          -1.27092215378431     -2.06109453758481     -2.41334725275420
