15
Coordinates from ORCA-job NEB_reactant E -27.347144660650
  C           0.93731997336063     -0.41225957256089      0.01420512637906
  C           1.71318681103521     -0.70699528776642      1.04470504053408
  H           1.27498658389927      0.27096102546856     -0.73957250038253
  H          -0.03648301545141     -0.84574319200633     -0.11449468749115
  Cl          3.28688424460955     -0.02003186847769      1.21833371816196
  C          -1.25502880385481     -3.51259818967847      0.70642227246392
  C          -0.04463382628202     -3.16611146277777      1.14085043744705
  C           0.19732495750243     -2.12415080688762      2.18765923261224
  O           1.47409036645526     -1.52452706088707      2.09403791483159
  C          -1.45134139180554     -4.52532603097310     -0.25284288655190
  H          -2.15525218816244     -3.03476180902042      1.07257146515910
  H           0.84023472147940     -3.65816070182808      0.76019393142567
  H           0.20201577956344     -2.60212338392731      3.17512994534457
  H          -0.58941899122478     -1.35779419507428      2.17498018037900
  N          -1.62448522112420     -5.34257746360311     -1.03767919031268
