20
Coordinates from ORCA-job NEB E -35.025947699670
  C           0.37881368401786     -0.84779297482917      1.06888891127695
  C          -0.50488008224041     -0.89967111912736     -0.02445808504582
  C          -0.10751436447434     -0.41187136144628      2.32269886680798
  H           1.15963318231582     -1.59858273525766      1.11057726680942
  O          -0.16026476385450     -1.76672101655689     -1.00508738511840
  C           1.29438095242315      0.91614355651364      0.48951692178079
  C           0.20145162085875      1.77775055144058      0.43665240543736
  C          -0.77248561527388      1.54434531446640     -0.55315193206732
  O          -1.41368300395228     -0.02630263602540     -0.20882406238792
  C           2.27961199167491      1.06605939425335      1.50003131819000
  H           1.68953930795586      0.50400093477660     -0.43557778145477
  H          -0.08084709332239      2.30260002950597      1.33741038307764
  H          -0.42967545917749      1.33708054260845     -1.56094413195904
  H          -1.68209990789480      2.12617128287417     -0.51538596934899
  N          -0.49925500786566     -0.03871215473594      3.33175757024206
  C          -0.96379295179629     -1.77804479525062     -2.17372825431207
  H          -0.84159632862240     -2.76359728041729     -2.61736581560723
  H          -0.62694397995765     -1.01383657290611     -2.87895956503816
  H          -2.01149108263855     -1.60040948656347     -1.92405370564725
  N           3.09109890182430      1.17139052667701      2.30000304436477
