20
Coordinates from ORCA-job NEB_reactant E -35.061341302450
  C           1.69675494243874      0.41144309837968     -0.01884821556331
  C           1.43924374280942      0.76336717520642     -1.29827409837258
  C           1.80029614445574      1.24190941179515      1.09345998758515
  H           1.81274216150902     -0.64421449768480      0.17653463995874
  O           1.33557439792352     -0.22807513619189     -2.19751596527912
  C           3.50240876784616      3.88392272821869      0.24471649194720
  C           2.96541116942611      3.38830465443668     -0.86724399719906
  C           1.49981997887202      3.14945242135548     -1.05885440320297
  O           1.24681537349150      1.98552393091271     -1.82912903318115
  C           4.88497301511132      4.12871426019435      0.35720545878260
  H           2.90883682263023      4.11164928947911      1.11984184512833
  H           3.58705765665693      3.14710184572774     -1.72036274290479
  H           1.07787831942723      3.95946534032404     -1.66684634447419
  H           0.96988925422197      3.11253699264540     -0.10269466345189
  N           1.88032462224336      1.88141633841559      2.04712288879464
  C           1.06536881988868      0.11300579712886     -3.54530314122311
  H           1.03597741008597     -0.83339863618659     -4.08046151055238
  H           1.85142617241746      0.75006337640877     -3.95701332028432
  H           0.10468547852221      0.62449618723429     -3.63683994383850
  N           6.00891575002242      4.33581542220033      0.44610606733072
