20
Coordinates from ORCA-job NEB E -32.461368231780
  C          -1.06872625232929      0.49678550183729      2.18722045862405
  C          -1.90992828674511     -0.15155277536834      1.39043500488568
  I          -0.06002682047733      2.30913862630371      1.85988384073688
  H          -0.85336851243334      0.09127156367192      3.15830804163049
  Cl         -2.58004311448979     -1.62601949428203      2.04216945743130
  C           0.19665890361982     -0.41148092189564     -0.95085431250274
  C          -0.44387665862959      0.73564888979656     -1.10468284495795
  C          -1.87842540251295      0.97588715806182     -0.73731118680275
  O          -2.41714534882935      0.02293728264498      0.17159398899433
  C           1.64035249086610     -0.61988205347067     -1.27126315589290
  H          -0.31292128672088     -1.27009631758676     -0.53158689317752
  H           0.05521546702233      1.59628348744833     -1.52719441069588
  H          -2.51807399460407      0.87080887503912     -1.62120746784051
  H          -2.01065331581330      1.99068818238673     -0.34594079022534
  C           2.44965407585998     -0.90135622925213      0.00933120665625
  H           2.03059876116789      0.26327402506663     -1.77791190838914
  H           1.72918841003432     -1.46557153111031     -1.95639672235241
  H           1.80554333102468     -0.86574455415137      0.88524608154171
  H           3.23053226475056     -0.15860426755913      0.14356215064492
  H           2.91544528923935     -1.88241544758069     -0.02340053830850
