20
Coordinates from ORCA-job NEB_product E -32.484481198680
  C           3.08968170298420     -0.93590769799858     -1.56910137099228
  C           1.62915326315801     -1.04393257797825     -1.28073780660857
  I           3.70258275770226      0.61383457562510     -0.17215903390774
  H           3.61331094404149     -1.83179893564653     -1.23642888827524
  Cl          1.31184376278753     -2.02024427441070      0.16989633618008
  C           3.37248786886865     -0.63112276435219     -3.04634689796953
  C           3.23959608983092      0.82804631555655     -3.37947351518688
  C           2.18683280706671      1.35519815956073     -3.97394481827341
  O           0.72748006786954     -0.56934356017895     -1.88228062690230
  C           4.72767220420725     -1.20177993142704     -3.49990122819292
  H           2.59230148635687     -1.16727289436347     -3.60369256992714
  H           4.07889984854875      1.45091211576307     -3.10348599595358
  H           1.33419187184142      0.76067822501715     -4.25694583443980
  H           2.12903972837680      2.40848159645709     -4.18825620520099
  C           5.94358747115939     -0.70330903013799     -2.72740760097151
  H           4.84776128666032     -0.94839382936184     -4.55570473327451
  H           4.68542897565911     -2.29214154637662     -3.42834356476429
  H           6.01483094132957      0.38047125820937     -2.75067845206734
  H           6.84716804079397     -1.10746145444871     -3.17817780826556
  H           5.91954888075722     -1.02511374950819     -1.68922938500648
