21
Coordinates from ORCA-job NEB E -50.292947261580
  C           1.11891729314660      0.22843491443953     -0.26468151504242
  C           0.66203464234631      1.55256140358474     -0.16147789096799
  C           1.03553942253579     -0.48611829375602     -1.59342405786415
  H           2.06053065047570      0.02825998015337      0.23538371631476
  O           1.27930403122770      2.33564875405466      0.75227178606266
  C          -0.31857137679302     -0.59403297735985      0.84210841672850
  C          -1.49505716086425     -0.17092873973382      0.22946186195449
  C          -1.73798773547360      1.23113368541733      0.19580577492874
  O          -0.48498244172080      1.91934115399587     -0.60964072717618
  C          -0.03256899454770     -2.07005739463905      0.90559512715737
  H          -0.00333755808547     -0.11372798909847      1.76423283262204
  H          -1.93581346945742     -0.78924006185480     -0.53653294743817
  H          -1.65672319269770      1.75527632755900      1.14520365360113
  H          -2.58205891620542      1.55926773519508     -0.39624118969908
  F          -0.12722620470372     -0.28179766235463     -2.24216316485469
  F           2.00868602085314      0.00370647257665     -2.41034952949705
  H           1.20031441612570     -1.57105360700539     -1.51874888620055
  H           0.81661962260546      3.18321310524476      0.82389502618344
  F          -0.45566047553010     -2.75214254190397     -0.16515745853861
  F           1.27868827408006     -2.34064091764236      1.03256039133615
  F          -0.63064684731726     -2.62710334687264      1.97189878038962
