21
Coordinates from ORCA-job NEB_product E -50.334723966180
  C           1.45372205927860     -1.73597339095964      1.37530594339094
  C           0.86864425435282     -0.32611986185317      1.16590238763986
  C           1.42672725221589     -2.49743812604053      0.04019358204974
  H           2.51720063126918     -1.64566361209027      1.63655398965740
  O           1.07311554767438      0.52479466467833      2.17355401557926
  C           0.70588191649197     -2.40928940815696      2.55505975977691
  C          -0.78517750264008     -2.50087656869245      2.34376890984245
  C          -1.63628621993482     -1.66359611039180      2.90386569429549
  O           0.28260036353774     -0.00155344465787      0.18092487096755
  C           1.28152583338376     -3.79006694573545      2.88366321858214
  H           0.89509218712901     -1.81396612275088      3.45918691090623
  H          -1.12462463611465     -3.29372830778566      1.69584243847441
  H          -1.32200326943399     -0.86178659278346      3.55260849438016
  H          -2.69337712996886     -1.74591715788378      2.72755258391656
  F           2.38951156052011     -3.44853848953782      0.03106437567832
  F           0.26286884296008     -3.12624590103977     -0.19730560893062
  H           1.61633852572575     -1.81508585842890     -0.80338705185177
  H           1.61476337515452      0.17313059782787      2.89300220950059
  F           0.98831443528631     -4.73941071224889      2.00476636136810
  F           2.62083195312918     -3.74589026526133      3.00133437505280
  F           0.81763001998311     -4.20707838620753      4.07414253972347
