20
Coordinates from ORCA-job NEB E -40.501936669400
  C           0.34377923461301      0.31589099836033      0.88509494254886
  C          -0.90033379642164     -0.23038963863658      0.51678673961794
  C           0.42740623464991      1.81967959669285      1.03396790046913
  H           0.82948580565557     -0.19758344544482      1.71019447893434
  C          -1.28911053700316     -1.60296069487099      1.02601301984058
  C           1.41829550280305     -0.00361523119357     -0.65170873506590
  C           0.59620426965624     -0.41585753966494     -1.70394658545859
  C          -0.58775654247108      0.36932741404772     -1.88031949724606
  O          -1.48282795006926      0.13784628246930     -0.58700969948607
  I           3.03146927942806     -1.28814696779142     -0.10495653015250
  H           1.79124328665175      1.01018011785958     -0.70043831527230
  H           0.53422334982305     -1.46644471066183     -1.94879176675551
  H          -1.25589473518149      0.05219150404114     -2.67402152675433
  H          -0.43937479421894      1.44834812212747     -1.88499673688751
  H          -0.04835324850406      2.33654502729155      0.20502272824192
  H           1.45875874501041      2.15109764282501      1.12941816726264
  H          -0.09680576019683      2.09627885066584      1.94813931043860
  Cl         -1.07016172869213     -1.70652516361580      2.78021015636631
  Cl         -2.98218885240801     -1.93967247789723      0.63398124009085
  Cl         -0.27805776312446     -2.88618968660361      0.26736070926758
