20
Coordinates from ORCA-job NEB_reactant E -40.539439385090
  C           1.83421922955830     -0.07616586323091     -0.04498978675421
  C           1.50453001683325     -1.01831787366875     -0.92649616315039
  C           1.82373710451834      1.38437361672516     -0.32801944266413
  H           2.11801125282401     -0.37460539216820      0.95300994410803
  C           1.53009295614898     -2.48352755333114     -0.53965505087865
  C           3.92600875419549     -2.23462668598907     -3.44039408780571
  C           2.68934571804307     -1.84402820983269     -3.67712493528327
  C           2.14221538960882     -0.54443271748663     -3.16371253658864
  O           1.10105288317497     -0.74001948118340     -2.20473368098390
  I           4.70539574145061     -4.06200012714070     -4.11686566741055
  H           4.64043089626141     -1.64657322328902     -2.88844733299780
  H           1.99302373480773     -2.46312357223020     -4.22249259367237
  H           1.66077393403500      0.00130937717266     -3.98041688439361
  H           2.94318025176175      0.06788798843212     -2.73295070237414
  H           1.39257925276005      1.59069555502842     -1.30343149404850
  H           2.83814373239373      1.78110374817002     -0.28733695927376
  H           1.24110067566599      1.89726118569870      0.43505990466372
  Cl          0.72843497907714     -2.74101691272999      1.02903350082305
  Cl          0.73035924738298     -3.49670142773820     -1.74145953326857
  Cl          3.22796424949837     -3.03429243120816     -0.36697649804660
