20
Coordinates from ORCA-job NEB_product E -40.550295294430
  C           2.54319878883985     -1.08990228874425     -1.04819412158941
  C           1.32313672193583     -1.98347820481228     -1.02441965648815
  C           2.10201981249018      0.34970394746208     -0.74862993717907
  H           3.25213409109688     -1.41788501317557     -0.28414090644343
  C           1.21999443070721     -2.93833783328788      0.18619344344063
  C           3.23251937971907     -1.12961678313650     -2.41777105603825
  C           2.43719953693312     -0.56750674641760     -3.53835006264281
  C           2.90464010447082      0.35787184105450     -4.35787223363571
  O           0.42934858600994     -1.94195547338300     -1.81647233733500
  I           3.74597684363607     -3.20468489096783     -2.91527647238645
  H           4.19711451888103     -0.62480157262375     -2.34169406649870
  H           1.44400936612743     -0.97371348226602     -3.66383190155761
  H           2.31179315930753      0.74484501256991     -5.16773330186170
  H           3.89800348842069      0.76480965255352     -4.25380351199243
  H           1.32782013109390      0.65986405847935     -1.44593533721469
  H           2.95192927599954      1.02067686572690     -0.84835732903680
  H           1.71536431038849      0.42380414866130      0.26387575730407
  Cl          0.80170794340535     -1.87311238560015      1.55895099826576
  Cl         -0.07756063975867     -4.11211885966010     -0.06021960661080
  Cl          2.72315015029574     -3.79096199243260      0.55818163950055
