19
Coordinates from ORCA-job NEB_reactant E -33.826447534420
  C           1.19871887592945     -0.24955470742620     -0.07808956451491
  C           1.19281748671408     -1.29165410003481      0.77507473055451
  O           0.67421887860449     -0.24863138600043     -1.33267946572309
  H           1.66689822953170      0.66916012659177      0.25537134751291
  C           1.78656338223168     -1.06243164752465      2.04363162895559
  C           1.66886596065788     -4.47583931577706     -2.02623401640384
  C           1.41400704721101     -3.27910359935919     -1.53839239019843
  C           0.25748345845544     -3.00215363156887     -0.62140648584492
  O           0.67856420629267     -2.55207415766627      0.65080755408636
  I           3.27264912444842     -4.86426141069827     -3.32860534230334
  H           1.07042339808460     -5.34603668346142     -1.81624540183568
  H           2.04357152976096     -2.43227504552724     -1.76922147745360
  H          -0.29890662866090     -3.92020819548521     -0.41494504069388
  H          -0.40950887898418     -2.26909030928938     -1.09010675896805
  C           0.94091438644462      0.90440046266008     -2.09942327491571
  H           0.42689936094296      0.76323903759588     -3.04818985942646
  H           2.01404054873524      1.02112419959621     -2.27975957110139
  H           0.55907501801518      1.80335554084877     -1.60651281581445
  N           2.26870461558470     -0.86106517747372      3.06372620408838
