21
Coordinates from ORCA-job NEB E -50.717748809730
  C           0.53743146861691     -0.91842930248512      0.22177822617233
  C          -0.60907167513287     -1.53958166097714     -0.32013294358420
  C           0.56252646339353     -0.69817746499026      1.72298429623364
  H           1.50224912114598     -1.30059725573816     -0.10599050621412
  C          -0.46316070852475     -2.35551950896239     -1.46800062531860
  C           0.34860284401178      0.81223002087654     -0.58992242838514
  C          -0.93334362148489      1.19685057298432     -0.19019211837410
  C          -2.04717411268512      0.35177899752134     -0.56948256411007
  O          -1.80279948084628     -1.05225291285030     -0.01988163486789
  C           1.51801322722947      1.69539790336851     -0.20019728675072
  H           0.48568227261045      0.45152263275619     -1.60655949416960
  H          -1.04145762990202      1.83681405392509      0.67231128593883
  H          -2.14860462852809      0.19477086975248     -1.64566814707404
  H          -2.99514283043712      0.63495742702388     -0.12188075447378
  F           1.71517394110690     -0.17402959373963      2.14053881239030
  F          -0.41983907935585      0.05947239172335      2.21036198275411
  F           0.45727854747863     -1.89286932580194      2.33702274346130
  N          -0.35496502172890     -3.05605668501683     -2.37132535120739
  F           1.39027578250129      2.20242464539140      1.04072927413563
  F           2.68099162989795      1.00564628656181     -0.23869821449214
  H           1.61733349063300      2.54564790867684     -0.89779455206434
