21
Coordinates from ORCA-job NEB_product E -50.750843562780
  C           2.61234748677311      1.72798991326849     -0.98837936147461
  C           2.09855681266353      0.61443068207057     -1.91316757875777
  C           2.23245815237775      1.37076926682158      0.45359165721063
  H           3.71089632342660      1.71053433931184     -1.02418693069172
  C           2.63521785695554     -0.69904530087493     -1.60640850170743
  C           2.08840427189633      3.10548854243027     -1.46473091074181
  C           0.88375097669080      3.59826662672808     -0.70433236622808
  C          -0.35148745559267      3.41422128363943     -1.12877526630208
  O           1.34679521471659      0.80130853522567     -2.82741210829763
  C           3.21422106073973      4.14026945609944     -1.42744354661448
  H           1.81073379807838      2.98711439692079     -2.52013943089644
  H           1.09025844985729      4.10858080781413      0.22563262682859
  H          -0.56510286288577      2.89739327915379     -2.04996559676592
  H          -1.19727661058330      3.76337361576315     -0.56403190737018
  F           2.94218137266715      0.31964885617512      0.88863361662748
  F           2.45418635656231      2.35648757370188      1.31937626533232
  F           0.94106590680632      1.03014336420842      0.57072048397028
  N           3.04672090947777     -1.74728371960748     -1.40892629186438
  F           3.78010079289550      4.23227636641536     -0.20479327417084
  F           4.21243390418823      3.77012495308230     -2.27056105292372
  H           2.87263728228883      5.14290716165210     -1.72360052516221
