21
Coordinates from ORCA-job NEB E -51.989739171720
  C           0.20847219736044     -0.19433164588643     -1.04453984594514
  C           0.10689419791379      1.21621318969363     -1.13061547528918
  C           1.48910218568228     -0.81065174171808     -1.52621655413229
  H          -0.67722158982637     -0.73320380587502     -1.35789339232571
  O           1.24433495431070      1.92694663738912     -1.20775173940042
  C          -0.17097026584692     -0.35472207177539      0.97730158920057
  C          -1.37021067144516      0.35824453274152      1.07736979781003
  C          -1.39337744177543      1.72957480074471      0.82523515207520
  O          -0.98247242926284      1.81369850726475     -0.90012550109286
  C          -0.22726830790744     -1.79180379198589      1.41578639101607
  H           0.74869386787377      0.13750758779861      1.28006338185238
  H          -2.29866520225516     -0.19080239237054      0.99533628988906
  H          -0.56889327201747      2.33523529375779      1.18004192441115
  H          -2.34730310725199      2.23351024367927      0.81360894020244
  Cl          1.35704223765274     -2.57319945459169     -1.67553785478924
  Cl          1.85936049722167     -0.19744722286458     -3.18383951308167
  Cl          2.87177552393695     -0.40027403201610     -0.49279911016931
  H           1.04436970243319      2.87492689550161     -1.19533476096075
  Br         -0.99867934323804     -1.84102425867555      3.24756837463825
  Br         -1.39571627326463     -2.88699658772643      0.31225487691337
  Br          1.50073253970592     -2.65140068308531      1.59008702917803
