21
Coordinates from ORCA-job NEB_product E -52.038645579900
  C           1.86496916451939     -1.03876957926930      2.29066717393840
  C           2.55372925488967     -2.36829768954745      1.86098788480097
  C           1.81138079444890     -0.02782513529857      1.14796543508381
  H           2.54521675481559     -0.60945313640827      3.03754541138786
  O           2.11230458045431     -2.95305361402207      0.75927779195992
  C           0.46885295526619     -1.26524341366207      2.92948692936118
  C          -0.17134945428313     -2.55690184948600      2.49191005899603
  C          -1.31131862929470     -2.61455472785497      1.82950327980550
  O           3.43283862366991     -2.83017417952842      2.52054807420771
  C           0.53325392310778     -1.23604583160772      4.45703165396785
  H          -0.18156138783742     -0.43146763562011      2.63389020698058
  H           0.34912945266954     -3.46050275638753      2.78027013010034
  H          -1.85358328493385     -1.72854662561904      1.54320249649444
  H          -1.74808838733590     -3.55661435209813      1.55027887144427
  Cl          0.58743834743421     -0.46096689364167     -0.09459394760564
  Cl          1.38751496045262      1.59684011704962      1.75873541171841
  Cl          3.40955542437866      0.05580731965621      0.35632489385885
  H           1.40550334675165     -2.47127336140737      0.29472978264578
  Br         -1.27147479353218     -1.44782771186181      5.17319031363347
  Br          1.65757668918167     -2.64400668641080      5.19783175260645
  Br          1.20111166517708      0.48317774302549      5.11101639461381
