15
Coordinates from ORCA-job NEB E -22.822662030670
  C           0.84229316568649      1.21963584275148     -0.12931598850568
  C           0.75754431840579      0.43503546906347      1.00237740533516
  H           1.58063381526665      0.94924529054894     -0.86192474182786
  H           0.67629377316653      2.27642915139702     -0.00076604414672
  O           0.22630388778249      0.98308285697282      2.12814501109358
  C          -0.70734944347154      0.43219448246846     -1.22539924368112
  C          -1.10111004040375     -0.70890106094015     -0.55445114404534
  C          -0.06200093165128     -1.61509739588362     -0.19312765168494
  O           0.81950046885119     -0.85820779672465      0.96723939944480
  H          -1.41074718201168      1.24700463060430     -1.31555306024040
  H          -0.06034946604314      0.31617643837677     -2.08074119637293
  H          -1.94367499929584     -0.64139218873057      0.12330165793373
  H           0.69394468287237     -1.79177229717841     -0.95325577228261
  H          -0.33729800062790     -2.51957822063533      0.33613424616041
  H           0.02601595147362      0.27614479790945      2.75733712281993
