15
Coordinates from ORCA-job NEB_product E -22.885795049920
  C           1.11817252947100     -0.60666436240102     -1.34606453938008
  C           2.02218907769814     -1.29825884275959     -0.33552261318204
  H           1.76462554528638     -0.04776535610839     -2.02343472971777
  H           0.50867039944204      0.11752691187385     -0.79665944288991
  O           1.46769784592954     -2.29186849082479      0.36956877401309
  C           0.20978525736595     -1.55933862158968     -2.13628262839765
  C          -0.93940476036232     -2.07531114567515     -1.32404207162753
  C          -1.23535324369076     -3.35511461534497     -1.16436526140694
  O           3.15883462271151     -0.96878140341158     -0.15222645009804
  H          -0.19806965961812     -1.00390205824434     -2.98584143469784
  H           0.79704516411090     -2.39013610959612     -2.53376854360266
  H          -1.55934184829550     -1.31208718251752     -0.86848118726696
  H          -0.64408254719590     -4.13499315276388     -1.61682911269984
  H          -2.08579299449519     -3.67689904831050     -0.58811925514724
  H           0.55472461164231     -2.48190652232634      0.08786849610143
