15
Coordinates from ORCA-job NEB_reactant E -22.853484191230
  C           2.19147729905907     -0.21322727474607      0.09842072428704
  C           1.34987608651640     -1.20466832414866     -0.17654402841114
  H           2.99454648175272      0.01430755458283     -0.57181063513699
  H           2.09559553406161      0.37168211290388      0.99319565152660
  O           0.30306544494081     -1.55702659089987      0.62698301837869
  C          -1.28582227077985     -2.62345636227310     -3.32135066455035
  C          -0.73924127216621     -2.27525352207095     -2.17290918643255
  C           0.49614761777605     -2.90873549868263     -1.60483651912260
  O           1.50063974078929     -1.95296661763395     -1.28734218384225
  H          -2.18072641801575     -2.15294617139493     -3.69093977757072
  H          -0.86559088899453     -3.40231040267101     -3.93637530019700
  H          -1.16827147285312     -1.49000025696541     -1.56600477785888
  H           0.96490760029539     -3.56855768489471     -2.33848815749822
  H           0.23537768952574     -3.48773306552172     -0.70924573631518
  H           0.30511882809236     -0.99360789558371      1.40744757274355
