22
Coordinates from ORCA-job NEB E -28.520321204140
  C           0.05040277676457      0.74311931814721     -0.46204223888846
  C          -1.11055301661539      0.88600635913487      0.29371274563264
  C           0.05642442170089     -0.22612756543243     -1.62116031335335
  H           0.61815708001469      1.65072602615720     -0.64406749589502
  N          -1.29079699244971      2.01606311704669      1.09137609047202
  C           1.05428347386007     -0.20870098004197      1.01348409072627
  C           0.25933227984698     -1.30713976864923      1.27059346986823
  C          -1.07043093362645     -1.04077969829910      1.74429118936974
  O          -1.80726412726804     -0.17266976891874      0.63048437757979
  H           2.02933285117221     -0.35419939764592      0.57503181978831
  H           1.00728659769811      0.62872079284641      1.69691688155791
  H           0.42751011176976     -2.22352239526321      0.72392498330365
  H          -1.12569207239998     -0.38097780840443      2.60968361889288
  H          -1.72694528601774     -1.89824613495609      1.84490803436520
  C           1.43854672703905     -0.47383797063255     -2.21209040359553
  H          -0.58148313355359      0.19542620804997     -2.40642291108156
  H          -0.39625912310734     -1.16727800935695     -1.30782465453044
  H           1.92365488126881      0.46873049268685     -2.45828182839053
  H           1.35318775186656     -1.06270728142377     -3.12266691872949
  H           2.07199937511009     -1.01765011715676     -1.51736720868922
  H          -2.18256825812816      2.05055058094688      1.56112217275392
  H          -0.99812538494541      2.89449400116506      0.69639449884304
