22
Coordinates from ORCA-job NEB_reactant E -28.541948511330
  C           1.88555628891311      0.11012227585562      0.04948577978366
  C           1.68715261863314      0.20885837095830      1.36409056425362
  C           1.66752159010720     -1.13247465845714     -0.75662037746646
  H           2.24030156510646      0.97830930924955     -0.48612200137065
  N           1.96463678421227      1.36047166131691      2.10752696786654
  C           3.24331958774797     -1.63153917728505      4.87927786506610
  C           3.06312642614763     -1.12615285386625      3.67409778137546
  C           2.17160986008386     -1.73469195984591      2.63297260655099
  O           1.19726968114252     -0.82703054430295      2.13038470384483
  H           3.90059406785175     -1.17106731361714      5.59724426943148
  H           2.74907115881075     -2.53593107713524      5.19534855470632
  H           3.55816444492811     -0.21367839224072      3.37010079013691
  H           1.59488932907151     -2.56338871236687      3.05157366890126
  H           2.78951273081010     -2.11004153582156      1.80380214438346
  C           2.97603785992234     -1.66195640290717     -1.34619157289702
  H           0.97931632074918     -0.90934871816474     -1.57771817886815
  H           1.20291014498865     -1.89585415209186     -0.13081899434292
  H           3.43102949573362     -0.91284768171190     -1.99074211591934
  H           2.79377776827071     -2.55896346106768     -1.93412265892667
  H           3.68408614682878     -1.90437053950839     -0.55597215186864
  H           1.41032989020783      1.42220909730802      2.95023518797633
  H           1.95748623973252      2.21486646570216      1.57096716738288
