23
Coordinates from ORCA-job NEB E -45.152724315430
  C           0.50754601385684      0.80108077646262      0.50338675248911
  C          -0.72036002461231      0.10385580753057      0.59245885084390
  C           0.45521993871216      2.29282802147097      0.26732583121799
  H           1.23652257717151      0.59963117797134      1.28482796083685
  C          -0.89691183718920     -1.02569077043514      1.57543561651130
  C           1.21623752151384      0.10406479339666     -1.11638245669136
  C           0.21714118655425      0.37152101203353     -2.05789185769747
  C          -1.07432978618980     -0.18569331014757     -1.81469235530544
  O          -1.59231319733804      0.24824095338779     -0.36160710059498
  F           2.40811286606092      0.70828266149216     -1.28355693303061
  H           1.38584331127157     -0.91450894687343     -0.77344772203839
  H           0.29779532361769      1.28419068429202     -2.62711311204086
  H          -1.11031049202133     -1.26696692420192     -1.70270108676022
  H          -1.86224372518295      0.18034409287482     -2.46233420947035
  F           1.65558076124391      2.83507173283180      0.03280317170209
  F          -0.35073491853962      2.69483225625639     -0.71496049848553
  F           0.00224266822177      2.89631273916504      1.39020377588830
  C           0.05033050425376     -2.20520552877958      1.33508854926184
  H          -1.92949477011978     -1.36822954134284      1.49760892244586
  H          -0.73732660313576     -0.64133917988456      2.58477704487656
  H          -0.09799022252681     -2.62803942038845      0.34426491375894
  H          -0.14953804893984     -2.98283390370028      2.06760148112124
  H           1.08898095331720     -1.90174918341194      1.43890446116122
