23
Coordinates from ORCA-job NEB_reactant E -45.190597812470
  C           1.51967129044840     -0.36846471470723     -0.35439586200947
  C           1.47905799258367     -1.49074624685456     -1.08932741009351
  C           2.07053701144421      0.97884339006061     -0.64555491642740
  H           1.08364362619979     -0.41180222744350      0.63051867688918
  C           0.87457556162347     -2.73541482282559     -0.48499702857886
  C           2.60942216066727     -1.01057972242776     -5.58961229671191
  C           2.94760619931026     -1.49828614600394     -4.41213240241836
  C           2.61940592209819     -0.81754033510581     -3.12269929542764
  O           1.92115622313069     -1.76304423612066     -2.31880652496839
  F           2.93227078314184     -1.63483612120670     -6.72900596286067
  H           2.07875887133117     -0.08636820857343     -5.76910213102264
  H           3.47407356299772     -2.43784087921595     -4.34013935877282
  H           2.00160313300985      0.06540988314525     -3.30818483944420
  H           3.54876588259667     -0.51978507814473     -2.62202436991840
  F           3.40075483582470      1.00575618060161     -0.89903151430573
  F           1.49832143569524      1.60754693309368     -1.70028533953025
  F           1.88824226230136      1.79639038233755      0.40142498288365
  C           1.93985772349863     -3.52575885794766      0.27579738617923
  H           0.48000523080517     -3.34791430588416     -1.29569700518707
  H           0.06104364140074     -2.46691583038833      0.18700680041479
  H           2.75036313268717     -3.80650067401641     -0.39150302032449
  H           1.50528352471473     -4.43041350824556      0.69225853093002
  H           2.34887999248906     -2.92963485412671      1.08759290070495
