22
Coordinates from ORCA-job NEB E -51.252408447950
  C           0.84631816240799     -0.51016464466611     -0.39343718992910
  C          -0.57496507128986      2.25806025084194     -0.22991085066825
  C           1.89659414821684     -0.73766585470087     -1.16438210973000
  H           0.45007681586223      0.50801339718503     -0.31470447623723
  C           0.42369400804343      3.30707379213703     -0.27864670954116
  C           0.10092643409985     -1.59619504975389      0.33207676707461
  C          -0.99873107363810     -1.00595243950722      1.17927679901080
  C          -1.06383584284102     -1.12108179034850      2.49133727932918
  O          -1.71410075747050      2.07438461806497     -0.09114587913917
  N          -0.40171023614021     -2.54830915646093     -0.64664513270872
  H           0.80362407348257     -2.14297307753055      0.97817577889167
  H          -1.77743420497044     -0.50712993227225      0.61845565358789
  H          -0.29933203580800     -1.62855522145575      3.05731415982383
  H          -1.88160779864697     -0.70809193407061      3.05678364708144
  Br         -1.72565941844857      0.24102599530138     -2.50586479990024
  Br          2.78095540691259      0.63125400634613     -2.12081232276947
  Br          2.66452934886421     -2.44445779316785     -1.39081670785848
  Cl         -0.19403656651781      4.86124480726270      0.47953052879180
  Cl          1.92421488789438      2.85437106604843      0.53158972357233
  Cl          0.65899331077541      3.56194660605080     -2.02695778438886
  H          -0.95538853340971     -2.08225838909587     -1.35903841789087
  H          -0.96312505737832     -3.26453925620799     -0.20217795640202
