22
Coordinates from ORCA-job NEB_reactant E -51.377128854980
  C           2.56139201183901     -0.19467831644556     -0.10696402792127
  C           1.85841081136181     -0.29605339653525      1.03988087908874
  C           2.53963442375684     -1.31427955489364     -1.06050300197915
  H           3.14902106063774      0.67187522944874     -0.35003465368232
  C           1.87417476295160      0.79559317459102      2.07704338186055
  C           0.93501814329546     -4.11308147057621      2.98651316084793
  C           0.18631232060874     -3.26966957068124      2.27127362971836
  C           0.36060234352960     -1.79087858068600      2.33914126801377
  O           1.18738566365394     -1.43122593188024      1.21361252920785
  N           0.92084306681842     -5.47222116570743      2.86690377129317
  H           1.65314093782292     -3.73466020351510      3.70241229680742
  H          -0.51015075578763     -3.63955016533121      1.53534137805819
  H           0.84246115678344     -1.49673787456407      3.27296905152255
  H          -0.59968743819631     -1.27657017869169      2.23390137729803
  Br          0.71606683754102     -1.73651669801720     -1.65414878710831
  Br          3.59418163958789     -0.91796033754476     -2.63458905451218
  Br          3.25367703746069     -2.96531234073169     -0.25339208039346
  Cl          2.72537951983205      0.20374709167958      3.54029349467158
  Cl          2.72852948057876      2.24914680457999      1.52737421081360
  Cl          0.21841613871771      1.29734479744809      2.51257558674138
  H           0.18426421349072     -5.87411733873559      2.31091644148792
  H           1.23602662371559     -6.02479397321053      3.64437914816566
