22
Coordinates from ORCA-job NEB_product E -51.370587479500
  C           1.92624162823939     -1.73379005502536      0.85005256434652
  C           2.41940758968356     -0.68883096659748      1.83163202111679
  C           3.15576162664728     -2.29035140910534      0.14367681027023
  H           1.26917921382997     -1.28717224227714      0.09810368847119
  C           1.95220443146867      0.76199840741585      1.62046026428999
  C           1.15276089829765     -2.83033438028452      1.64031773420054
  C          -0.15885761435895     -2.27762981569709      2.12859373235843
  C          -0.53241376887363     -2.29311149668454      3.39369219659295
  O           3.10453285504782     -0.96054475847899      2.77349638427836
  N           0.99468141052484     -3.99226044158639      0.78622461471498
  H           1.76771498218102     -3.11667902424197      2.50075152715387
  H          -0.82201359718638     -1.91202577412187      1.35448856936837
  H           0.11734092167525     -2.65868908211834      4.17169026758656
  H          -1.49690089928294     -1.93097991378190      3.70474403005993
  Br          2.68402675447226     -3.21923730035210     -1.48353694187539
  Br          4.33285402174654     -0.80296696078229     -0.37620034739134
  Br          4.19526944310494     -3.47654520258955      1.24883978375070
  Cl          0.46652563172396      0.87004672021694      2.61000506142252
  Cl          3.17043231902495      1.87851712664743      2.24720025886999
  Cl          1.55721880347044      1.19041901090660     -0.04714171098175
  H           0.21429869869617     -3.87854757817523      0.14751299597211
  H           0.84353464986716     -4.83178486328673      1.32969649542445
