21
Coordinates from ORCA-job NEB E -44.522180720620
  C           0.67320174265073      0.12919254440546      0.33040394851931
  C          -0.26650514807004     -0.65997642664264     -0.58868399200865
  O           0.65218095549658     -0.15946630888521      1.67126380170603
  H           1.68967008519662      0.04107160424457     -0.08560459906985
  C          -1.44200061675196     -1.24000148724173     -0.08765398832288
  C           0.21661105926429      1.62045661467498      0.12476967772805
  C          -0.18650805672528      1.79942105987253     -1.26603516183136
  C          -1.36423241863337      1.09719960795151     -1.77763683611716
  O          -0.38870303315628      0.03604991021270     -1.76885320934823
  I          -1.35807582390486      2.04839713419401      1.55067239050985
  H           1.04270558459991      2.27160966225065      0.40317096104274
  H           0.50271673124221      2.23788045931937     -1.97235189705301
  H          -1.66746549927973      1.31039525094175     -2.79888341658837
  H          -2.20292149233336      0.93163786084840     -1.10520599865750
  C           1.56660931637760     -1.16104243949636      2.08344679390258
  H           1.32355833421569     -1.37872889027065      3.12057094575809
  H           2.59579747976315     -0.79396159321155      2.01155485853872
  H           1.46225161128501     -2.06077253855746      1.47544320144210
  Cl          1.16106705595665     -2.09610262276477     -1.43160148747840
  Cl         -1.46772734449115     -2.10204062180015      1.38903011187780
  Cl         -2.54223052270240     -1.87121878004543     -1.27781610454986
