17
Coordinates from ORCA-job NEB_reactant E -30.211053606980
  C           1.88700799940658     -0.32919654497259     -0.26486561318137
  C           1.45510661607952     -1.58037526052170     -0.40609420071125
  Cl          2.62336469011286      0.69759284596649     -1.44816983137040
  H           1.78842361068337      0.15574421893417      0.69164878048713
  C           0.82564909048669     -2.29075144900767      0.77620833348747
  C           4.40762180229698     -2.83272376037022     -3.39731289361758
  C           3.61804644426722     -2.26636526375638     -2.50564151714177
  C           2.13044164003257     -2.15041081654063     -2.65978399474565
  O           1.42804480691420     -2.43471884362108     -1.45605117282518
  H           5.47422025253723     -2.87764027268215     -3.26243814084587
  H           4.02082927089009     -3.26356570266262     -4.30617041601065
  H           4.02127583862044     -1.83982216889307     -1.59801889741843
  H           1.76067429539361     -2.89734976846573     -3.36732160331614
  H           1.86366590918993     -1.15502504711464     -3.03226949668395
  F           0.67098748161998     -1.47515929381404      1.85908096486104
  H           1.45579007921900     -3.13163469694319      1.08778637130995
  H          -0.16654982775026     -2.66159817553493      0.49721332772266
