23
Coordinates from ORCA-job NEB E -52.322479650350
  C           0.42306881892013      0.04217047826037      0.17824217388774
  C          -0.48416214933381     -0.91317129184066      0.98413174877037
  C           0.09789035199768      1.50401350999294      0.49000436845169
  H           1.45903402341342     -0.12276707623202      0.51929067569677
  O          -0.72523370509403     -0.51196952022911      2.24660990058841
  C           0.36504011495620     -0.27644488191702     -1.32274032151658
  C          -0.72241709981320      0.43700137161906     -2.07565605303666
  C          -1.91954099548436     -0.08411441316131     -2.26279673431111
  O          -0.95450854887325     -1.89656771935542      0.50249647253842
  N           1.70040805460030     -0.00794172086148     -1.95873618856452
  H           0.21207435655507     -1.36222784531242     -1.40955976577703
  H          -0.46810537124707      1.41622142756567     -2.45498936263175
  H          -2.18266913922215     -1.05890893310405     -1.88668998016259
  H          -2.68912577277000      0.45723119258704     -2.78268382581870
  F           0.72197416348800      2.33190131380459     -0.36087427345526
  F          -1.20502350659127      1.78379715485935      0.41417344261056
  F           0.50489767645839      1.85251313989253      1.71527165459698
  C           0.20961499449677     -0.87179392857850      3.26108291171812
  H          -0.23080863955317     -0.52523050706578      4.19228895160216
  H           1.17132690586374     -0.37617364964633      3.10397483869113
  H           0.34288266236379     -1.95591881732116      3.29181345604677
  O           2.67528131294143     -0.11574218702077     -1.25579857319147
  O           1.69810149192741      0.25412290306450     -3.12885551673348
