19
Coordinates from ORCA-job R E -32.812526292230
  C          -1.27965839742456     -0.67455337738160     -3.06443741652185
  C           0.01649255536383     -3.36331820494938     -2.80508113678635
  C          -1.28922380298823     -3.13536900224435     -2.93082158528659
  C          -1.89022100812014     -1.83206094810870     -2.78221333325553
  C          -0.62537822752260      2.60399668730456     -0.00677942638432
  C          -0.67662678421011      1.33748531490214      0.38797499141237
  H          -1.97547834208179     -3.95206018725435     -3.11063255411877
  H          -2.91083464593510     -1.79314991266960     -2.41966329548112
  N          -1.90189996173871      0.57269991344783     -2.80652653782274
  H           0.42504875682398     -4.35319174010846     -2.91144827291200
  H          -0.29020921773951     -0.57737841057083     -3.47947632975205
  H           0.70306251446674     -2.57732479917847     -2.54015071152269
  H          -1.14883302125379      3.37812690941696      0.52513918808642
  H          -1.23002387549634      1.01785482019819      1.26086997850786
  H          -0.07806158089091      2.89576739829089     -0.88831051777822
  C          -0.00403983965115      0.31343964365197     -0.30407405150752
  O          -1.26368961126731      1.57531066189882     -3.07087836613546
  O          -3.01842082165494      0.58825750807226     -2.32151400267248
  N           0.52065531132062     -0.53715227471789     -0.87083662006898
