24
Coordinates from ORCA-job NEB E -40.758174704470
  C           0.26668471551112     -1.28871087812487     -0.22439362762888
  C          -1.12941944680088     -1.35638491264598     -0.32426222816867
  O           0.89164411776393     -2.03507646343930      0.72176043197951
  H           0.86732672507767     -1.17623366873452     -1.11686285226923
  C          -1.79510333248052     -0.87610934841869     -1.60396344376899
  C           0.41660618058078      0.57746522280933      0.64794376995527
  C          -0.87124331152088      0.89745287790007      1.07321779353213
  C          -1.58744764216577      0.01106772365377      1.87113796599322
  O          -1.82839825015417     -1.42899236258670      0.74404607244864
  C           1.12435349734505      1.46757972155805     -0.33961087524575
  H           1.07226511544144      0.12301315561720      1.38281602098056
  H          -1.43448742130715      1.59972322462010      0.47063218369506
  H          -2.61659263569689      0.22675203372278      2.11048686723038
  H          -1.06218912287096     -0.55964648642346      2.62401837123533
  H           0.22179996117912     -2.31912524496185      1.36344069297167
  F          -1.58635126627127      0.45034618017957     -1.84382593515469
  F          -1.27429972401727     -1.51846294128216     -2.67960799541485
  H          -2.88044425406578     -1.04731288572223     -1.58276592600401
  C           2.60801015427498      1.14435135342570     -0.47114816974641
  H           1.01420793425363      2.50147954529653      0.00097272271490
  H           0.63603414577654      1.40590488059043     -1.31340245313625
  H           3.11458394367784      1.28753769030689      0.48093168629912
  H           3.07109654290809      1.79810309178107     -1.20611589063710
  H           2.76136337356136      0.11527849087828     -0.78544518186096
