24
Coordinates from ORCA-job NEB_reactant E -40.785317043320
  C           1.33864598953073      0.12938792704027      0.01478780050055
  C           1.38799705854191      1.13376690791157     -0.86624214335730
  O           1.93502563396845      0.12771241796599      1.25143651235723
  H           0.78757221473427     -0.76038491751008     -0.25481018884086
  C           0.67561558090762      0.97441840293899     -2.18805812752068
  C           4.45879464968246      4.45863346404066      0.48392562541405
  C           3.22302080563212      4.08271483962904      0.20353368855427
  C           2.70005165598696      2.69305328282170      0.38665569618504
  O           1.99292781458015      2.34354807534258     -0.79601242444536
  C           4.98513489110907      5.84714392902068      0.31224722221257
  H           5.17132668046805      3.73652750249040      0.86309189830188
  H           2.50207651559623      4.78637932541319     -0.18771207904930
  H           2.01425392149992      2.65796203830292      1.24407882167784
  H           3.51619558991863      1.98528811807527      0.56492507549918
  H           1.76054433644231     -0.70850799805025      1.69253165846348
  F          -0.25145721645094      1.94614207495767     -2.36741274525774
  F           1.53610648576299      1.08124478325092     -3.22885612370403
  H           0.16270009960275      0.00462436494715     -2.27876857005325
  C           6.16637358178550      5.86735019893977     -0.65775326915273
  H           5.31582205738854      6.22723308354266      1.28336510866097
  H           4.19330152247080      6.50045144218103     -0.05711801952406
  H           6.97175010214181      5.23394640473677     -0.29247279249090
  H           6.54770313401223      6.87930861851110     -0.77173657193700
  H           5.85661689468745      5.50105571350000     -1.63352605249383
