24
Coordinates from ORCA-job NEB_product E -40.794775399180
  C           3.29635274599431      1.88447494153367     -0.24288321626954
  C           1.92368556534927      1.74295044971572     -0.85267311315589
  O           3.44355988585298      0.95453840065295      0.79148116565699
  H           4.07003429145735      1.65867298326042     -0.98190066255501
  C           1.69958665862997      2.26525252959565     -2.28802085736963
  C           3.52173369368493      3.33801007016513      0.30543015365228
  C           2.26648648813302      3.81841745587980      0.97552305837250
  C           2.03152860623294      3.69999838324146      2.26886155148683
  O           1.00405098503778      1.24004374215935     -0.26094026346810
  C           4.01091686242415      4.34614116537149     -0.73723758786899
  H           4.30537410410398      3.20940858499549      1.06055748727069
  H           1.52788819080186      4.26191117188469      0.32005145355616
  H           1.11198674206800      4.03880586282517      2.71378444884972
  H           2.75374311177859      3.25962785705212      2.93751291313930
  H           2.60406849691741      0.90243156855886      1.27102840847781
  F           1.18239768921531      3.51649711089341     -2.25413446799173
  F           2.84908828153829      2.33922695209286     -2.99343528602117
  H           0.99240400628505      1.62070946803297     -2.83262726507518
  C           5.36878751292968      3.99900539658720     -1.33670607089765
  H           4.08744987024904      5.30996013469035     -0.22709294635986
  H           3.27879791520831      4.46526508892890     -1.53474359460785
  H           6.09248118299600      3.78868187468673     -0.55240451506671
  H           5.73473799077609      4.83628306627776     -1.92555561304093
  H           5.30565912233569      3.13588574091784     -1.99417518071402
