69
Coordinates from ORCA-job A2R E -97.915315478660
  Ru         -0.07676268071008      1.66103183695812      0.29792974888972
  H          -0.12497406732838      3.20654181752982      0.08771611274687
  N           1.04044488502035      2.08466550262707      2.00103420014991
  C           0.45903719312629      2.64658631852253      3.07882076873670
  C           2.36813376236653      1.85747101968598      2.04403572161491
  C           1.17658737986458      2.98035285062316      4.21764228214326
  C           3.13787967695159      2.18513980565621      3.15203292966303
  C           2.54129695800467      2.75081882831145      4.26451944186697
  H           0.66347126834915      3.42592431584534      5.05659683290864
  H           4.19820195348733      1.98661022445469      3.13347145872424
  H           3.11917787014588      3.00728133645966      5.13849538121648
  P          -1.80756580453157      1.84418784496259      1.76555026908076
  C          -3.39340423278508      2.80761746697264      1.35958351127150
  C          -2.27117275174164      0.33034275627266      2.83914085478232
  P           1.97444794913387      1.61931452908821     -0.63669777501459
  O           2.58448125572527      0.66301432964545     -1.74578087918507
  O           2.66352100659220      2.97666208529892     -1.14080715136666
  C          -1.00398833915438      2.95763391554977      3.00730112068706
  H          -1.11147997175019      3.96442631711801      2.58497821468650
  H          -1.46842398950446      2.94084659009328      3.99690612101839
  C           3.00377616974315      1.22106540945850      0.85651697873777
  H           4.04419573448913      1.52977790136422      0.72598108580875
  H           2.96359637566279      0.13006212426301      0.95726160680444
  C          -1.05401024348180      1.37623284440523     -1.23337787364910
  O          -1.68223942413434      1.24606943510464     -2.19880396733844
  H           0.11404526384988      0.13282690876689      0.53594757646310
  C          -4.06892792317862      3.50020899403895      2.54406149613062
  C          -3.00458777849799      3.88441780045044      0.34423853233973
  C          -4.36012070781225      1.84753964263984      0.66504267756434
  H          -3.41883661528243      4.25100203877942      2.98723595729042
  H          -4.96270755699781      4.00971797486383      2.18357603966986
  H          -4.37532827416574      2.80651772781057      3.31808524154774
  H          -2.57939242032804      3.42954019350243     -0.54829263195839
  H          -3.88716825506336      4.45633883028354      0.05869541539598
  H          -2.27086479798823      4.57650782673267      0.75265995304260
  H          -3.81782154278842      1.25052753486046     -0.07054338069149
  H          -4.85048275081762      1.18579165481816      1.37439942011544
  H          -5.13454221990906      2.40940522670465      0.14362956421699
  C          -0.97024031029633     -0.09852498764095      3.52749547037328
  C          -3.33134817018402      0.53720022598576      3.91810783106164
  C          -2.69990897713569     -0.78748692277150      1.88576454267693
  H          -0.67916348986376      0.59920268511836      4.31128889229624
  H          -1.09788196720961     -1.07933295619925      3.98606041668095
  H          -0.16204030525808     -0.16875311082006      2.79925232567737
  H          -4.31826991411024      0.69219852295782      3.49146955530690
  H          -3.38045720982368     -0.36009170348557      4.53602587968883
  H          -3.08580761744457      1.37324742499257      4.56992132781701
  H          -3.72674567575160     -0.66595205429015      1.55412306664504
  H          -2.05132645461109     -0.77714218194926      1.00943894449522
  H          -2.61940421789932     -1.75662860105939      2.37888465319798
  H           2.01303491923728      3.68071994060719     -1.19465131004737
  H           2.41813594234427     -0.28313721573263     -1.52918072657341
  C           0.93469341729580     -2.23841266355256     -0.78058133567951
  O           2.07654968136529     -1.81243404934632     -0.87030242997019
  C          -0.09259168965595     -1.92912603608022     -1.79278559916454
  C          -1.45338610673010     -2.14013091117783     -1.56333795199946
  C          -2.37992537153218     -1.82280745416524     -2.53737492368259
  C          -1.96764612407912     -1.30365202403028     -3.75446196669332
  C          -0.61952455235553     -1.10057579079623     -3.99733605793626
  C           0.31078560625392     -1.40633306722204     -3.02428556269314
  C           0.53896071842464     -3.12051377048232      0.37157118573116
  H          -1.79483586747040     -2.53097272558581     -0.61818486196019
  H          -3.43176690657616     -1.97625642376960     -2.34574913329376
  H          -2.69874455964093     -1.05071344077318     -4.50734399947909
  H          -0.29338596128679     -0.69264172412742     -4.94219661415729
  H           1.36316842051056     -1.25740614968075     -3.21401523899594
  H           1.43024803686754     -3.43534926520288      0.90967891391545
  H          -0.01656859739824     -3.98976327735313      0.02986723591400
  H          -0.08839905054712     -2.54155005289021      1.04745461473673
