69
Coordinates from ORCA-job A2S E -97.914562982840
  Ru         -0.21150911646016      1.74155773786404      0.27803080231323
  H          -0.27198693557395      3.26086339972272     -0.06889587012312
  N           0.99881302609886      2.30378799932291      1.87429869690128
  C           0.47453151895638      2.95100058660411      2.93273802876154
  C           2.32422121271587      2.06384605346290      1.87099842706170
  C           1.24851027633896      3.35860834155884      4.00920581825779
  C           3.14895691781566      2.46126479156463      2.91492776700897
  C           2.61130152382039      3.11424237635951      4.00940057213105
  H           0.78038012111258      3.87233450717667      4.83537744873667
  H           4.20539310906469      2.24865923044313      2.86149602123967
  H           3.23283933838414      3.42612183309284      4.83406991650019
  P          -1.86605946676832      2.07206392128790      1.80942326193762
  C          -3.45823545238994      3.02716278023907      1.40183581485913
  C          -2.28821722568934      0.66722836407262      3.03394574911178
  P           1.79030148521201      1.62664369786999     -0.75778980040903
  O           2.35470821676257      0.60262770556103     -1.83338031816746
  O           2.43596192261964      2.95312690177442     -1.38607347583463
  C          -0.98604657101360      3.27793830337795      2.90453075644426
  H          -1.10141586622843      4.24535092707336      2.39983718148292
  H          -1.40058416379868      3.35656771927911      3.91302974282071
  C           2.89855494276629      1.33985016215461      0.70285236210658
  H           3.92951529308243      1.63796952329972      0.49460156439744
  H           2.86994517431625      0.25931246783054      0.88382329803057
  C          -1.26473818071398      1.26568213921157     -1.14747721187977
  O          -1.92514685369934      0.93109324582294     -2.04186365180537
  H          -0.01251557452979      0.24465720426578      0.66678201402361
  C          -4.04836813807985      3.84459394860691      2.55192493365379
  C          -3.11308512493443      3.99260851653000      0.26600395239897
  C          -4.48486812707620      2.03180230220286      0.86011756337645
  H          -3.36760401142087      4.63119088360072      2.86867540775282
  H          -4.96399705164182      4.32255648981570      2.20336770077532
  H          -4.30111965205530      3.23695105206638      3.41275198559571
  H          -2.75168593863513      3.44373835118178     -0.60166408849567
  H          -4.00072048433908      4.55590187917833     -0.02079914135078
  H          -2.34297801003440      4.70242356571321      0.56056549804158
  H          -4.00218355048823      1.35652128536723      0.15188610310633
  H          -4.94347917403388      1.44994727210548      1.65550554363047
  H          -5.27902726617149      2.56324633137876      0.33639602864276
  C          -0.96061790835956      0.27112294580122      3.68830033182236
  C          -3.28808073588714      0.99081454553593      4.14164891338247
  C          -2.78283864371613     -0.52444707357844      2.21323151905702
  H          -0.60941146033085      1.02999156689944      4.38596255107941
  H          -1.08456160001211     -0.66111872960842      4.23912227121210
  H          -0.19961396948062      0.10554204470230      2.92635613419941
  H          -4.29231306079598      1.13205091639254      3.75241768583583
  H          -3.32212284322301      0.15117588936216      4.83655397045606
  H          -2.99383944923608      1.87343655139231      4.70626975043030
  H          -3.80261792812404     -0.38576645116350      1.86777149936144
  H          -2.13686159512381     -0.66276701586026      1.34624967990749
  H          -2.74880284763476     -1.43357651035828      2.81253948160621
  H           1.77164926772940      3.64213518153842     -1.46210045832007
  H           2.25060876450673     -0.32412757058676     -1.52030749607162
  C           0.78518049296640     -2.13305244533509     -0.66871092327346
  O           1.93862110756245     -1.73100932011125     -0.61784554009728
  C           0.14865204374153     -2.75059699971220      0.51330336879129
  C          -1.13486346946133     -3.29536365564290      0.49002031662857
  C          -1.67826652074273     -3.84119047874831      1.63769527614570
  C          -0.95952117780196     -3.84195226340083      2.82266458103415
  C           0.31301700277323     -3.29473431816469      2.85947414595913
  C           0.86291201854688     -2.75863989222428      1.71297552080082
  C          -0.02172084943229     -2.01843823319762     -1.92718280712946
  H          -1.71569951614245     -3.29407446275500     -0.41836343903294
  H          -2.67190134999419     -4.26401053014060      1.61034495729951
  H          -1.39242450295904     -4.26668290524804      3.71700190567186
  H           0.87410179389435     -3.28799627622579      3.78254017262992
  H           1.85434084312050     -2.33074297688732      1.72377290847147
  H           0.58282453477581     -1.58060276755826     -2.71823025174886
  H          -0.88102407918615     -1.37489898229476     -1.74682269846106
  H          -0.37896650526371     -2.99632358086201     -2.24260973068273
