69
Coordinates from ORCA-job A3S E -97.871795014900
  Ru          1.89269848133718      3.60686916716960      0.08886895305016
  H           3.26086825480487      4.24388198433783     -0.06535417519541
  N           2.61718197122480      2.59938126982706      1.77522858124175
  C           2.77537416807717      3.21742881477526      2.95438882280586
  C           2.84996161600865      1.24545133992566      1.68031530191163
  C           3.04091107045514      2.53976405921147      4.12394881798186
  C           3.08428382746449      0.50556815616483      2.87890306301270
  C           3.16929976156115      1.14258876466253      4.07756348190390
  H           3.15881192020882      3.07478563238240      5.05260517407316
  H           3.20943912086697     -0.56349483256576      2.79619712634898
  H           3.35330419045495      0.58977582304503      4.98741960135842
  P           1.47439151315976      5.25170396414763      1.66431580252969
  C           1.98776588952309      7.04260617644054      1.31301656616131
  C          -0.16460250439750      5.25087340551375      2.63693181847356
  P           2.81000068416129      1.76683919128340     -0.92216646825168
  O           2.21276110177582      1.01364966387767     -2.22367225661071
  O           4.34079562123009      1.82115935867297     -1.40403647306080
  C           2.69167915251313      4.71974135095207      2.94388890185222
  H           3.66208712296922      5.10062297851950      2.60335013212268
  H           2.48224421329285      5.12441408074748      3.93684573723620
  C           2.79957487643102      0.63342597220873      0.43575111985482
  H           3.11628695255033     -0.39198975040648      0.31066921644568
  H           0.76532813664853      0.27019418245473      0.04490020533003
  C           1.25847959483188      4.45778160284452     -1.41175111713178
  O           0.87952966738191      4.98960504510132     -2.36739039629735
  H           0.36479414279438      2.53970129059500      0.21004349533252
  C           2.40949216341297      7.83840266372934      2.54902770145468
  C           3.18356012155327      6.97890516567089      0.35947325553295
  C           0.84666378875966      7.74476964924560      0.57665902156818
  H           3.27093842125370      7.38571860970564      3.03384501377290
  H           2.69604150156883      8.84228653543974      2.23660025571537
  H           1.61176552998690      7.93570025109247      3.27620319004428
  H           2.89958588317597      6.50078080634251     -0.57735999773744
  H           3.53389795500714      7.98721110853020      0.14307617521586
  H           4.01125384071315      6.41849859832291      0.79048442888028
  H           0.47601355620546      7.10734604846379     -0.22612332042018
  H           0.02547374155923      7.99544724612042      1.24281672988203
  H           1.20830192339423      8.67131193462171      0.13279462677810
  C          -0.20552651324541      3.89367702537193      3.34454154353777
  C          -0.36488531244393      6.33740167252800      3.68834350672225
  C          -1.29356958285204      5.30196953052932      1.60563551936617
  H           0.43675713100437      3.88001747207277      4.22202190645211
  H          -1.22025063077166      3.66315911518480      3.66763229879291
  H           0.11413901934744      3.09408889011790      2.67590755355528
  H          -0.47906837057071      7.32170847807939      3.24329772286327
  H          -1.27780264492696      6.11956137410563      4.24330853216505
  H           0.45722053198114      6.35824462910909      4.40058666138260
  H          -1.42286541061698      6.30216739777645      1.20194831206011
  H          -1.06892297758281      4.62755928329204      0.77709702699142
  H          -2.23538220148981      4.99148668092857      2.05672555165800
  H           4.48336917037548      2.44620448191043     -2.11892006864839
  H           1.29580938972979      0.74862460290445     -2.07297693044235
  C          -0.47747349851725      1.79845775410046     -0.07087985574858
  O           0.07414715393468      0.60358753239218     -0.56884172415990
  C          -1.28617083296882      1.51623311137592      1.18195413870503
  C          -2.59629618215519      1.94654508612300      1.34536542182937
  C          -3.29677503708553      1.63945808032330      2.50000143044311
  C          -2.70289832556669      0.89858165989453      3.50582848811461
  C          -1.39672421207999      0.46586255569423      3.35300406881045
  C          -0.69598075309413      0.77238516745203      2.20208916558980
  C          -1.27622587637621      2.40181939725906     -1.22316713357271
  H          -3.08555094887569      2.52108905329003      0.57566947718748
  H          -4.31570327109160      1.98120402308767      2.60983610514306
  H          -3.25305765379462      0.66015565659409      4.40379162329720
  H          -0.91772873457665     -0.10890434726260      4.13131020662009
  H           0.32938309546880      0.43801998619906      2.11263719484917
  H          -0.62126624394098      2.51972365548968     -2.08516957410552
  H          -1.68705222736364      3.37429020646241     -0.96793317718266
  H          -2.08038702377487      1.72114347844023     -1.49442310544261
