69
Coordinates from ORCA-job TSA2S_3S E -97.868404348420
  Ru          0.49531213298430      0.93147274631131     -1.42272877001575
  H           0.45890264057441      2.44612201735563     -1.59558068502241
  N           1.72392967458434      1.23273772993499      0.25199881512918
  C           1.23771887962643      1.71281375408032      1.40238813789278
  C           3.03014329780799      0.85204270591468      0.17171934388476
  C           1.99630564620591      1.77913572208578      2.55626810590318
  C           3.83309342669031      0.87587094763964      1.33544634510497
  C           3.31805392685092      1.33194638730857      2.51807205548323
  H           1.57137017798553      2.17549460497924      3.46466473540609
  H           4.85525810089438      0.53905672157015      1.26036082735523
  H           3.92540441579400      1.36137903597524      3.41047673079993
  P          -1.15804384515003      1.22900985338631      0.16489115824129
  C          -2.62749165576977      2.37152109509990     -0.19649150923246
  C          -1.75101444400800     -0.24514834353153      1.21335728231294
  P           2.53520990360897      0.97997796446537     -2.45559840083842
  O           2.94425158468433      0.06578124838560     -3.71068200760744
  O           3.22630981861928      2.35490789102167     -2.90721660087362
  C          -0.17767083197344      2.21511711950325      1.38412408437335
  H          -0.16366512918056      3.23733515708310      0.98759035045240
  H          -0.61576809990330      2.23012975962146      2.38481108483237
  C           3.52799873797965      0.39317382613588     -1.07658878641798
  H           4.60580178501399      0.36760574499663     -1.20270847634078
  H           3.10039572279066     -0.98266081698179     -1.36914572644628
  C          -0.56382195442245      0.67750861014699     -2.90507453710336
  O          -1.22567706787578      0.54033391279608     -3.84247474863669
  H           0.83430826612246     -0.87681101265965     -1.27792542887243
  C          -3.17048221125663      3.11627306230705      1.02403514786955
  C          -2.14424671871571      3.41147621885846     -1.21015960719315
  C          -3.72981474035596      1.55042346448159     -0.86610353024412
  H          -2.41752827125583      3.77308732264901      1.45257345871968
  H          -4.00864105532901      3.73702544163257      0.70861531687352
  H          -3.52941417464241      2.44673552312492      1.79696441566953
  H          -1.82529137225694      2.92739507204590     -2.13217315409590
  H          -2.95521333406436      4.10057481098442     -1.44166395661316
  H          -1.30815504563671      3.99115631305793     -0.82373131016852
  H          -3.30248832353220      0.92464343405270     -1.64981544624988
  H          -4.25757404454112      0.92230553270949     -0.15348739528697
  H          -4.45928668359980      2.21596428195080     -1.32557953929605
  C          -0.48879264046014     -0.78749992355821      1.88985504308108
  C          -2.78635629115759      0.03244154536389      2.29882900145319
  C          -2.27914095614991     -1.29973843545143      0.23887884989447
  H          -0.17700230316871     -0.15753085879977      2.72037029480514
  H          -0.66967921710382     -1.78916110502963      2.27795840577707
  H           0.33731523937953     -0.85981920820431      1.18172075225048
  H          -3.75552457611776      0.29194577820511      1.88251869610707
  H          -2.91586397736817     -0.87193575779844      2.89366098795165
  H          -2.45961909080135      0.82419167226423      2.96989224258589
  H          -3.27312250294922     -1.05185103251264     -0.12208800485868
  H          -1.61276182292435     -1.37844100853315     -0.62237222521510
  H          -2.32617115737774     -2.27350783574044      0.72435280628898
  H           2.70932337311129      2.83672483282010     -3.55665978211057
  H           2.86630275061673     -0.86844040528849     -3.43426620627726
  C           1.24772647213048     -1.95155422413653     -1.57575396551008
  O           2.57946639068878     -1.88781400411409     -1.90616906683801
  C           1.04093760706408     -2.84497090740134     -0.36398293359044
  C           0.00974267101756     -3.77122939714212     -0.27242875640679
  C          -0.10872915306333     -4.58296612079589      0.84300786959608
  C           0.79928754795219     -4.48567217516610      1.88206407359337
  C           1.83343579384803     -3.56903663423517      1.79813724673181
  C           1.95214838860081     -2.75791747643898      0.68567508481981
  C           0.44807622574933     -2.38973684765941     -2.80769410920293
  H          -0.70845819017710     -3.87709073594842     -1.06961435364916
  H          -0.91596467948744     -5.29966404266906      0.89535011769320
  H           0.70512894802685     -5.12314155209089      2.74902814146306
  H           2.55151299324446     -3.48490175565611      2.60057963601463
  H           2.76712857221774     -2.04998355286905      0.62911228819650
  H           0.69688218664811     -1.74037667526963     -3.64647687187062
  H          -0.62459689474266     -2.33563566927650     -2.63919903434484
  H           0.72888915740552     -3.40860134734719     -3.06771400817765
