69
Coordinates from ORCA-job TSA2R_3R E -97.866598118570
  Ru          0.56835158929734      0.87644411450565     -0.70871266502953
  H           0.45560357513634      2.39503768020982     -0.73111837098884
  N           1.79715016558525      1.12943488969843      0.98107465913027
  C           1.30425320826288      1.54712868772076      2.15214580792162
  C           3.12625214683430      0.85403975221956      0.86673159431069
  C           2.07671322001966      1.62857441602879      3.29596612856667
  C           3.94642412518629      0.88936524735290      2.01765900142724
  C           3.42342696148181      1.26833875381351      3.22377114017482
  H           1.64274517434029      1.97066887533272      4.22210774427543
  H           4.98727441124946      0.62664834150687      1.91361864265426
  H           4.04246715892621      1.30682434916722      4.10775931421066
  P          -1.07923857856355      0.95731667298303      0.93189649764411
  C          -2.62805905973579      2.02178203939084      0.66545026098622
  C          -1.53703197962716     -0.57367689583134      1.97854393412435
  P           2.59174272836642      1.10273988746558     -1.74236950061197
  O           3.02947392904017      0.28505394325775     -3.05194059302155
  O           3.19968908089523      2.53716541814059     -2.12290966276611
  C          -0.13787460456023      1.96049674671488      2.16894696314508
  H          -0.19079709588176      2.99330538546170      1.80525083182123
  H          -0.55840211936584      1.91856838580256      3.17603213512804
  C           3.63070423879543      0.49347338703032     -0.40913054360013
  H           4.70606373845576      0.53143807430518     -0.54967560116467
  H           3.26793369372205     -0.88737982583010     -0.75349203012536
  C          -0.43596728833340      0.80366456286771     -2.25082470805074
  O          -1.01928646743214      0.89199881498656     -3.24316113320378
  H           0.99803316915347     -0.95116704277634     -0.73699129730909
  C          -3.17171922497312      2.69502061671737      1.92663869477604
  C          -2.24117670682636      3.12184739319458     -0.32603463017025
  C          -3.70737585787572      1.16144148092137      0.00810137021993
  H          -2.44747720558094      3.38657166091617      2.34947077330102
  H          -4.05787463906065      3.26959634413338      1.65825301859864
  H          -3.46122556440293      1.98283798244562      2.69045963682167
  H          -1.92609819626057      2.69097113365121     -1.27502554841323
  H          -3.09826341603624      3.76921368524366     -0.50636312427925
  H          -1.42754859321046      3.73676920708858      0.05380372915083
  H          -3.27342517778295      0.57420853527603     -0.80168035422024
  H          -4.18244551522969      0.49512260685846      0.72354572951708
  H          -4.48201450793645      1.79891637731676     -0.41580091529562
  C          -0.19781492452563     -1.09919507371561      2.50783776138352
  C          -2.47164741850182     -0.35047662937692      3.16374370849383
  C          -2.13682084126485     -1.62866019752058      1.04905558797464
  H           0.17379997218850     -0.49087125715581      3.32989075792076
  H          -0.31145459468346     -2.12009144385089      2.87155314029265
  H           0.55538296080214     -1.10768643578577      1.71764018442040
  H          -3.48714356697900     -0.13852087658463      2.84053303649736
  H          -2.50166493687513     -1.26254303723110      3.76037094961155
  H          -2.12519489596867      0.45327038971961      3.80949382863051
  H          -3.15536598655165     -1.38620871119299      0.76193191936022
  H          -1.53684284944236     -1.70893415060132      0.14406650189215
  H          -2.15036836228237     -2.60141425248166      1.54039889444902
  H           2.68753370715886      2.98874632938408     -2.79778540288202
  H           3.00163247666530     -0.66680219585826     -2.83633024572730
  C           1.48401922485854     -1.94197008436567     -1.16257913165990
  O           2.83755190041556     -1.80142326439668     -1.34340125408832
  C           0.79492322827488     -2.26140174973875     -2.47952336560742
  C          -0.57264954896620     -2.09936910423302     -2.65121558158921
  C          -1.17583139855889     -2.43279080351157     -3.84957779454309
  C          -0.41859406699849     -2.93839596830049     -4.89245427828986
  C           0.94327921513386     -3.11487854628030     -4.72597667571991
  C           1.54524948958452     -2.78302764775492     -3.52581644961947
  C           1.19892227247258     -3.07365015996434     -0.16221025686916
  H          -1.17766004736281     -1.69493978028590     -1.84933601554142
  H          -2.23934633826364     -2.28924994347699     -3.97069846683697
  H          -0.88969519625357     -3.19187584150660     -5.83051738672051
  H           1.54240268397863     -3.51130759674648     -5.53242952382068
  H           2.60634843106585     -2.92872542801977     -3.38682303773556
  H           1.70510593746134     -2.87921035732826      0.78145228318501
  H           1.60597449953861     -3.99220832584374     -0.58140340383881
  H           0.13496845780696     -3.20598954128298      0.00811278732244
