16
Coordinates from ORCA-job NEB E -30.586103638120
  C           0.15464962737238      1.80381803076351     -0.36214305921103
  C          -0.20736333246142      1.33140050189176      0.95628550262613
  I           2.31430878270123      1.49111052403546      0.05746055392603
  H           0.07712028688907      2.88928895123598     -0.45956240547113
  C           0.15746656835105      2.04787409789399      2.13363369650439
  C           0.46884355142167     -1.42182845698427     -1.35665015527913
  C          -0.33459455195530     -1.54965424623864     -0.30384258602032
  C          -1.36097541359319     -0.52412849679785      0.04902692387034
  O          -0.89903032279217      0.25616215518599      1.17386010696229
  O           1.41976741582148     -2.28608368565678     -1.73085723113396
  H           0.39590369726741     -0.58598330025778     -2.03848160550320
  H          -0.23303115967758     -2.38491964943361      0.37584740738166
  H          -2.28470244507612     -0.98435298976222      0.40522929184636
  H          -1.55178863067578      0.14431094919368     -0.79335896577885
  N           0.38542044839044      2.78267468269668      2.98802025340320
  H           1.49800547801682     -3.00968906776592     -1.09446772812278
