16
Coordinates from ORCA-job NEB_reactant E -30.670946953690
  C           2.48262917190830     -0.06416200886201      0.59627444265574
  C           1.48971476303748     -0.94840879648106      0.76784288892336
  I           4.10961559887678     -0.54610020148506     -0.61447716377927
  H           2.49258351918161      0.90506490272453      1.05719905970570
  C           0.39762959680262     -0.58450765981337      1.60013442861044
  C           1.73848904303508     -4.55490702408352     -1.11869268590351
  C           0.67623188045984     -4.31278947097350     -0.36348861174670
  C           0.44779587111513     -3.03809938234708      0.38815124141487
  O           1.52909218392635     -2.15398195235936      0.16373227854085
  O           1.97069011777914     -5.69105594610755     -1.80600597672708
  H           2.53461764067902     -3.83886513902116     -1.25203578891150
  H          -0.10948594119172     -5.04675406859759     -0.24505273966763
  H           0.35079620825088     -3.25023904075610      1.46508121875254
  H          -0.49516680355629     -2.57286047670142      0.05860596340319
  N          -0.48332125912878     -0.28986712147094      2.27230133389044
  H           1.24728840882456     -6.31746661366480     -1.67276988916143
