24
Coordinates from ORCA-job NEB_reactant E -37.030920771150
  C           1.59875327981617      0.68478273422004     -0.55130119597754
  C           1.70819960390534      0.47869472686404     -1.87820410870107
  C           1.68492743370331      1.88171023139546      0.16500562677813
  H           1.39635323344198     -0.17466281622743      0.07394556392606
  C           1.49685869559075     -0.89825784446964     -2.45135005415126
  C           3.99111786746119      3.75484764417530     -1.11589042790088
  C           3.63794361372201      2.88526351314502     -2.04561104328917
  C           2.23915888727683      2.72139199347700     -2.56181400407660
  O           1.93896717154658      1.36688000793340     -2.85672402801095
  C           5.38377761723941      3.93066947745581     -0.60807252464451
  H           3.26585915303938      4.39814513537223     -0.63957926342446
  H           4.37229276551646      2.23721131602541     -2.50459796445662
  H           2.14327494721342      3.22777313686615     -3.52967982601141
  H           1.50791401066002      3.14541331941397     -1.86629871961807
  N           1.72925971250030      2.82209441090934      0.82648854677585
  C           0.01210511998795     -1.14111569327324     -2.73018573211647
  H           1.86908005935157     -1.65117242529605     -1.75608584408009
  H           2.05582018434068     -0.97138522365209     -3.38494291078306
  H          -0.56576537024622     -1.07262425313791     -1.81125116642493
  H          -0.13101176331699     -2.13007786006608     -3.15782868547470
  H          -0.36504575463712     -0.40166411392691     -3.43222979055461
  F           6.27793060222637      3.10390439685870     -1.24109771878195
  H           5.43291057393593      3.69476110715763      0.46209583088013
  H           5.73411835572468      4.95791707877987     -0.76879055988183
