24
Coordinates from ORCA-job NEB_product E -37.032442231560
  C           3.29571338146983      1.12245391880730     -1.49725850644898
  C           2.17845315020027      0.71555165961047     -2.48157149504615
  C           3.11105100465786      0.53455568403724     -0.19354456156012
  H           4.22570550329420      0.71256836837288     -1.91826778792287
  C           1.51066644645957     -0.59775711868431     -2.17924958118383
  C           3.40979132351697      2.66512055378769     -1.42858324419216
  C           2.32018456607978      3.22638718812117     -0.55759407416566
  C           1.27761036043790      3.88271562174917     -1.02758656835296
  O           1.90830532023880      1.41136928228784     -3.42201881139102
  C           4.78854598269389      3.10235911176966     -0.93405358952173
  H           3.29072691201459      3.03969562045517     -2.45136154478986
  H           2.43932363799173      3.04314445134110      0.50192954833537
  H           1.14773622030274      4.05851359396483     -2.08310930760592
  H           0.50808798914861      4.26288618529270     -0.37826864656707
  N           2.95709375894765      0.05387700749770      0.83190369093163
  C           0.58227375757930     -1.04477419900579     -3.30064448461510
  H           0.94905295600383     -0.46623979431918     -1.24896666897563
  H           2.27748489704346     -1.35084055844861     -1.97972208072862
  H          -0.17402135912642     -0.28640362279031     -3.48511268030461
  H           0.09032227781784     -1.97627505873201     -3.03498242490506
  H           1.14323903030539     -1.19344286067202     -4.22003463026899
  F           5.05559520525646      2.60555190722600      0.31589040448187
  H           4.83868146780546      4.19358346507472     -0.85855182393853
  H           5.58517620986028      2.73719959325660     -1.59274113126402
