24
Coordinates from ORCA-job NEB_reactant E -45.002105000560
  C           1.49403461440756      0.34067088923356      0.16453929231758
  C           1.20266482427406     -0.93238542505656     -0.13794482754707
  O           1.39465122955275      1.34312374269003     -0.73619437444112
  H           1.83488216212717      0.60018252017269      1.15978801490367
  C           1.29098362348985     -1.97793851426386      0.94195636980849
  C          -0.40867686999013     -3.51881913965730     -3.75745929119420
  C          -0.38921845831703     -2.40061286836018     -3.05338380876387
  C          -0.06669723296578     -2.33612448412021     -1.59557349489788
  O           0.88500410967266     -1.29173992290196     -1.41531856444712
  C          -0.75475689983669     -3.60371385832342     -5.20930046250215
  H          -0.17981432086854     -4.47537697252504     -3.30783484415367
  H          -0.60675238668298     -1.44978656927745     -3.51710420330288
  H           0.33108816695433     -3.29751200182865     -1.24875992036336
  H          -0.98181245939249     -2.10647951883060     -1.02931350391189
  C           1.91076746099392      2.58752194868276     -0.32410047342641
  H           1.69119576797791      3.28803930692702     -1.12715190266579
  H           2.99401274277304      2.53829086473508     -0.17238443840252
  H           1.43401859100796      2.93195015306631      0.59976766726737
  F           0.06314897781244     -2.44743575618550      1.31183979034207
  F           1.98783550543285     -3.07080267963395      0.54136645944718
  H           1.77200688680854     -1.58797388368139      1.85048404232321
  F          -1.09880647779508     -2.38600225026438     -5.73620700720681
  H          -1.61231776401665     -4.27024772473558     -5.36834044115830
  H           0.09945820658033     -3.97122785586143     -5.79247007802452
