19
Coordinates from ORCA-job P E -31.804804658530
  C          -1.44008554731329      0.49494656579902     -2.28861879274479
  C          -0.13155012985453     -1.63275696898690     -1.18325020420051
  C          -1.53588772489253     -1.83592543840275     -1.66311960171362
  C          -2.16715358361468     -0.80870858125402     -2.20742475955952
  C          -0.80299219140778      0.82560899889934     -0.93143127387319
  C          -0.05188994128923     -0.36865735610958     -0.30685700686487
  H          -1.98041713156674     -2.81142488765941     -1.55455980887807
  H          -3.17582497259392     -0.87552473027602     -2.58073824594758
  H          -2.10443121606762      1.30776871416221     -2.57928320378979
  H           0.21369848968869     -2.50140977216370     -0.62176034041549
  H          -0.65145456964142      0.42037257988704     -3.04433067887551
  H           0.52208174544843     -1.50732383921605     -2.05399083055756
  H          -1.59029673637885      1.14142654954012     -0.24499125230398
  H          -0.51464541493009     -0.61234911841835      0.65827126806092
  H          -0.13402825773040      1.67829319565721     -1.06655023685664
  C           1.39085827248278     -0.00340920895695     -0.00187337287712
  Br          1.47287808245985      1.51250268736347      1.24549341264166
  Br          2.35464745073961     -1.47884974716098      0.84878730635063
  Br          2.37735337646173      0.49897035729630     -1.60975237759495
