19
Coordinates from ORCA-job R E -31.705120069920
  C          -1.55610776408347      0.04434659841591     -3.22761078998449
  C          -0.01671919222217     -2.37841625928211     -2.28401864237515
  C          -1.12432189095459     -1.88714354471416     -1.73867067615808
  C          -1.94164339705117     -0.82076968374398     -2.29598368411528
  C          -0.93003371677531      1.31706805718118     -0.10185810037485
  C          -0.19312087994735      0.60380270667765      0.72874391230793
  H          -1.49104711123277     -2.31316270402539     -0.81199091386193
  H          -2.94159465956539     -0.74736974566737     -1.88562856567800
  H          -2.21925964684126      0.80597546083153     -3.60063491119219
  H           0.53416708707987     -3.17687869585124     -1.81710676674046
  H          -0.56359542736196      0.03127214080197     -3.64548926854671
  H           0.37454034904826     -2.00813741229584     -3.21672023506612
  H          -1.93365528959916      1.59829700999146      0.16307749680071
  H          -0.57078153106579      0.29968578369099      1.69671486101698
  H          -0.58040799334430      1.63851936684496     -1.06870957463976
  C           1.20549823403069      0.17808857798985      0.49605403813595
  Br          2.39074996159797      1.19815711847042      1.71756992025065
  Br          1.41159141759494     -1.72096147665859      0.93212369943907
  Br          1.84798145069295      0.45097670134279     -1.30813179921828
