19
Coordinates from ORCA-job TS E -31.693616249510
  C          -0.95341985650745      0.66375138327193     -1.50088939529388
  C           0.20589010218345     -1.73054688621424     -0.35148722570552
  C          -1.11358872213551     -1.58933499618955     -0.57860344357278
  C          -1.68563367264467     -0.43647694862358     -1.17819238979449
  C          -0.41809090588608      1.30861790564503      0.48648972388138
  C           0.35746674541594      0.38747866225742      1.12182388261147
  H          -1.79942754707346     -2.31648287939381     -0.16473098178403
  H          -2.76534529980082     -0.36860140871533     -1.17679109378896
  H          -1.45044724985899      1.54241075940217     -1.88015877501722
  H           0.58159161973320     -2.56959330881245      0.20953042582834
  H           0.08776005016456      0.58428122637646     -1.76050212009342
  H           0.94017465924948     -1.14456503008938     -0.87294276718126
  H          -1.45051386770253      1.40470789379277      0.76939837419965
  H          -0.07097820645144     -0.32228413514067      1.81214700216447
  H           0.03440315223021      2.18125411290425      0.04311897682168
  C           1.82199400880296      0.50900508516318      1.18275136065640
  Br          2.31719352307830      1.92636641687989      2.55499984772897
  Br          2.71116539368406     -1.11839702291168      1.76999642951547
  Br          2.64980607351879      1.08840917039760     -0.48595783117624
