19
Coordinates from ORCA-job NEB_product E -39.409170078850
  C           1.60509066100763     -2.53973045113364      0.41132893197261
  C           1.15620855770803     -1.20885110593823      0.99585445806518
  N           1.81065441588997     -2.45880107895099     -1.00534867823038
  H           2.54914459209583     -2.82440021251440      0.89307468934934
  I           1.22406930788259     -1.13868554135614      3.16500719821568
  C           0.52969573472409     -3.59820012922973      0.77706559650215
  C          -0.84172935076913     -3.14489380083360      0.35854298218728
  C          -1.83437452766784     -2.97000165358512      1.21023565378341
  O           0.80369268546597     -0.26195991154215      0.38618771896008
  C           0.83892556017002     -4.96921527542028      0.18927791112584
  H           0.54674712114277     -3.71904520049755      1.86819372584772
  H          -0.97919351548833     -2.97041822775892     -0.69964201356577
  H          -1.72158980613432     -3.14649894851014      2.26779637720962
  H          -2.80422413254164     -2.64169275736603      0.88093768840884
  H           2.66727879985257     -1.97435835117010     -1.24062921178127
  H           1.04161655879745     -1.99582413079767     -1.47705788362296
  Br          2.64074120538272     -5.55906205512483      0.65599663983453
  Br         -0.41559374041160     -6.26372800318811      0.96117299765770
  Br          0.65533987289322     -5.07793316508237     -1.73539478191958
