26
Coordinates from ORCA-job NEB E -44.087582269800
  C           0.52222062150044     -0.20321139133607     -0.39231329741960
  C          -0.61196809895233     -0.08282971340574     -1.20730467867595
  C           0.67671278503055     -1.44720877484820      0.45102417261783
  H           1.45522504132868      0.13193770784740     -0.83720234957387
  C          -0.58499730016659      0.79712604770905     -2.44054812149930
  C           0.07135160539780      1.20194251446361      0.84859514682372
  C          -1.18557697673753      0.82577429555394      1.32841390521231
  C          -2.24819472457981      0.72570260597841      0.37785192933562
  O          -1.78873952894754     -0.36010834887439     -0.70099700942750
  C           1.20125557450915      1.33008796412767      1.84416535265336
  H           0.12464864332371      2.01526334161610      0.13147860853202
  H          -1.23398157310393      0.21914792758236      2.22010197909964
  H          -2.40616221265784      1.60425897599138     -0.24579444549706
  H          -3.18157105905694      0.31918833113668      0.74932208529468
  C           1.12137384491644     -2.60323633468841     -0.44323935256876
  H          -0.27677517239743     -1.69662359495643      0.91719050109276
  H           1.42413734798467     -1.29957347074912      1.22808074641798
  H           0.37000819105052     -2.80404467112503     -1.20364471367313
  H           1.26252173212324     -3.50084666698607      0.15348325561048
  H           2.06114050816796     -2.36728838759641     -0.93772095958720
  F           0.38247838496386      1.77322555575477     -2.35531920708156
  H          -1.54861543014517      1.30105153679623     -2.57557268558468
  H          -0.35555105605056      0.20834468363064     -3.33651958460631
  F           1.13749501549210      0.41174428646576      2.83780657883512
  F           2.41689386911719      1.17515927491454      1.26620470400622
  H           1.19466996788936      2.32501630499731      2.32245743966319
