23
Coordinates from ORCA-job NEB_reactant E -45.179329512970
  C           1.34313863082538      0.08619011092301     -0.25630728638230
  C           2.20373804083214      0.32348564661003     -1.24994771663078
  C           0.71164276875280      1.18892042555667      0.52669367497325
  H           1.06893084833990     -0.91719370698809      0.02090552818545
  C           2.75628827751037     -0.86344322821033     -2.01643168521988
  C           2.01843351716519      1.49019588646388     -4.42706778193721
  C           3.23625141300068      1.61618552779786     -3.92701201823512
  C           3.52950787598523      1.94863937566731     -2.49098336636947
  O           2.48812419410314      1.60728768298492     -1.58105366598214
  C           1.71678632965106      1.14874028412886     -5.84383190104516
  H           1.15771531431091      1.61714508742260     -3.78189942922280
  H           4.11073325128913      1.49323942309906     -4.54933704220754
  H           3.61087266097017      3.03574055903816     -2.37160831466652
  H           4.48168960353946      1.50603523652081     -2.17882904386438
  F           0.26845177914438      0.72412649529637      1.73647246254727
  H          -0.16464790356171      1.59507142667209      0.00535737911839
  H           1.42366047563064      1.99766820189251      0.72159067158207
  F           2.07141775067876     -1.10726889469705     -3.14880618596063
  F           4.04521395506282     -0.76512796060280     -2.36739567756747
  F           2.66437683111412     -1.98639352882841     -1.28888723966366
  H           1.19476382224728      0.19352931520973     -5.88719825299659
  H           2.62781774120725      1.07922930873960     -6.43214318330844
  H           1.06479282220091      1.90349732530324     -6.28137992514633
