17
Coordinates from ORCA-job NEB E -37.912024672590
  C           0.11858437971895     -1.47140389888403     -0.02663148159021
  C          -1.25459418903135     -1.38224571342247     -0.15454830704361
  H           0.50924782146882     -1.53651718350971      0.98072553508465
  H           0.68007096020257     -2.03080972912240     -0.76118003880760
  I          -2.09384658184903     -1.75567500374786     -2.10949778307822
  C           0.53022315826065      0.44658278942164     -0.31285099223443
  C          -0.30215223628945      1.08173615467901      0.59872777117215
  C          -1.71506219244252      0.89970996945838      0.44113091056395
  O          -1.96158678006820     -0.65713994647880      0.62932217017222
  C           2.01772118636517      0.53252722470554     -0.09180133131845
  H           0.28333425822093      0.46950537784253     -1.36968665836250
  H           0.07771078383341      1.28606239380148      1.58931627610826
  H          -2.10944256661849      1.07642742066921     -0.55934072901368
  H          -2.34056509691400      1.33555753467095      1.21109313574599
  F           2.36496940407403      0.31997726695923      1.18516379353257
  F           2.69791741376170     -0.35711713966652     -0.82811134672921
  F           2.49747027730681      1.74282248262382     -0.42183092420188
