17
Coordinates from ORCA-job NEB_reactant E -37.934140776360
  C           2.20277280969109      0.47413655949331      0.13041805638031
  C           1.45702254251293      0.56568012715553     -0.95439160061996
  H           2.78389048861602      1.30182651650770      0.49759839955861
  H           2.26334302822080     -0.44385097655768      0.68190340845585
  I           0.33795802238135     -1.06725525508536     -1.69331376964414
  C           4.13297192438210      3.61234229205521     -0.87834214600248
  C           3.31303089397850      2.86212722001281     -1.59580566577681
  C           1.82426199395332      2.85601793196735     -1.43440847864953
  O           1.23973352807207      1.61570745276190     -1.77144517359885
  C           5.61512511900655      3.62121368152110     -1.08199262343272
  H           3.79925128029885      4.27711552102497     -0.09550389184018
  H           3.69530256333431      2.21064376731900     -2.37103830014391
  H           1.38746654313434      3.56152751195770     -2.15057997152650
  H           1.53483618427877      3.15783171786880     -0.41974404109163
  F           6.01952230563004      2.84170683768113     -2.09116409554959
  F           6.07566460962934      4.85735041446619     -1.33829400885494
  F           6.26764616287964      3.19867867985035      0.01630390233646
