17
Coordinates from ORCA-job NEB_product E -37.961545155160
  C           3.36174935132564      0.96849964353479     -1.26797277788334
  C           1.91722150883559      0.58649104929937     -1.23777636117177
  H           3.84446471622539      0.50722479811308     -0.40042208693236
  H           3.81922345217565      0.58215870925160     -2.18303438068557
  I           0.82207239765956      1.28218967550874     -2.98059012094371
  C           3.53821401767738      2.49575293931291     -1.20957119600668
  C           2.84342255828717      3.07975968252859     -0.00874190560447
  C           1.89006231358770      3.98693678555514     -0.09155451224873
  O           1.34593478431481     -0.02764226491452     -0.41068917773861
  C           5.03072983074819      2.81410695995627     -1.14358713036520
  H           3.16152595855646      2.96080768305496     -2.12713099075490
  H           3.17689359277272      2.69788126006843      0.94638947522359
  H           1.55043298146397      4.37555976907305     -1.03764501373372
  H           1.40858977656531      4.37682686303400      0.78749257194511
  F           5.61619879197631      2.30930466714184     -0.04896270702923
  F           5.69698702043276      2.31235462851477     -2.19563075265194
  F           5.25907694739540      4.13098715096696     -1.13537293341848
