19
Coordinates from ORCA-job NEB E -48.333293226570
  C           0.26571145432339      0.33483904175957     -0.84992291853458
  C          -0.91987664571030     -0.18905853059728     -0.53598647675161
  I           2.10814580597118     -2.56855194574418     -2.05871413066469
  H           0.65711782090669      0.28881269128090     -1.85029508406257
  C          -1.80280022468499     -0.87593263001542     -1.56155853035692
  C           1.08420295596737      0.99956818184414      0.21870304158305
  C           0.23347017037203      1.40809093267259      1.31545896496654
  C          -0.85510273075908      0.51130310233757      1.72402772472475
  O          -1.51042048647428     -0.18084193482326      0.67093168539635
  N           2.09226473336748     -0.15112905080966      0.65679740465427
  H           1.73202320627706      1.78089661367350     -0.17944048475019
  H           0.47227700751580      2.25820534002767      1.92741264153870
  H          -1.63745438455650      1.03278466103182      2.28420960195375
  H          -0.42529486957394     -0.26685497420369      2.39131285563536
  F          -1.93344870188675     -2.18035169544628     -1.31344744094009
  F          -3.03534778935723     -0.35237894940926     -1.56750554149515
  F          -1.32174646070217     -0.75010253010789     -2.80001077170745
  O           1.76192414744088     -0.82400279800527      1.58892127289296
  O           3.03435499156336     -0.27529552546557     -0.06089381408249
