19
Coordinates from ORCA-job NEB_product E -48.374015697910
  C           2.89719655783780      2.23162153694343     -0.26702800733985
  C           1.41099804135223      2.13324152521073     -0.41265857251128
  I           3.41266878808694      0.12169911176968     -0.15920505123644
  H           3.39026309929222      2.59290953996933     -1.17079501025190
  C           0.91232358260096      1.75470277660235     -1.83801731394274
  C           3.30937643815642      3.03704285745947      0.95201066875067
  C           2.84750799547496      2.49250347223470      2.27383810674262
  C           2.36614142194920      3.25305525888787      3.23792702512102
  O           0.61092515761165      2.30768222211412      0.46014402301190
  N           4.81216312737074      3.16186696650558      1.01440159797237
  H           2.93367462047236      4.06241000330685      0.83926694601216
  H           2.97087568866904      1.42707849756859      2.41004488407278
  H           2.24734765987191      4.31763150197491      3.12691902629877
  H           2.06687252861719      2.83155142773666      4.18062129894006
  F           0.16980472889254      0.65120642220790     -1.82311668375052
  F           0.15961065751229      2.75183487680311     -2.31733144719071
  F           1.90485511761886      1.56427992643755     -2.71583816318345
  O           5.45808525534889      2.47941063779396      0.26415135265967
  O           5.23960953326380      3.94167143847321      1.82006531982488
