19
Coordinates from ORCA-job NEB_reactant E -48.377564434740
  C           2.41549025734664      0.72842102770569     -0.32871015409481
  C           1.53032724995790      1.71070891998318     -0.19295105949198
  I           3.75595360300500     -0.09092506780882      1.05732077975867
  H           2.49124822102375      0.23398008909082     -1.28165310491988
  C           0.69192380540437      2.09835373693532     -1.40974346571348
  C           3.72880414509009      3.74866505816679      1.01341049122743
  C           3.18484007434478      3.09238048806522      2.03095699612239
  C           1.79823965518512      2.54492687439475      2.05899016848512
  O           1.14847831496982      2.53715067892758      0.80378771224365
  N           5.07600786704922      4.24369455731291      1.09560899344186
  H           3.24577800691818      3.96827633248471      0.07301152487433
  H           3.76957956240287      2.94391626094432      2.93060706621593
  H           1.17319344880648      3.20282108654589      2.67515649460075
  H           1.78592807709790      1.55037696017406      2.51799010368992
  F          -0.61289207683151      2.06778320977655     -1.13424076743963
  F           0.98435827207742      3.34448261754730     -1.80274330318274
  F           0.88787347162124      1.30368742202136     -2.46467679200249
  O           5.68306372234289      4.08144620941126      2.12995198362979
  O           5.50670432218783      4.79335353832113      0.10732633255516
