27
Coordinates from ORCA-job NEB E -35.474900715480
  C          -0.11426326281455      0.77215113307335     -0.32766101570654
  C          -1.33574342897876      1.06269109257652      0.30463022814862
  C          -0.14436389134280      0.42047969011813     -1.80207384182450
  H           0.72404572147068      1.40956508922259     -0.05833561754785
  C          -1.36286753492604      1.89965551188491      1.55963257991295
  C           0.25514451613243     -0.89123839502413      0.65386297676619
  C          -0.85233830388053     -1.67644933772910      0.29275368378166
  C          -2.12948713576232     -1.25463083836673      0.69366425989491
  O          -2.35720731790344      0.32036689771959      0.04215350972390
  O           1.49177976767089     -1.33992658856308      0.27575259472135
  H           0.24795482010522     -0.44749247705127      1.65165276562402
  H          -0.74516893002833     -2.30412498734161     -0.57804515401993
  H          -2.26162493958192     -0.96913162861712      1.73191799311048
  H          -2.97921876167134     -1.78384125398274      0.28665343509842
  C           1.20710420433014      0.04525719663335     -2.39600476674384
  H          -0.51466484854363      1.31122358029734     -2.32249729490170
  H          -0.86899229396663     -0.37453732542245     -1.97473930070043
  H           1.93744808722858      0.83188115288813     -2.21289347176709
  H           1.11164554291198     -0.08445171133720     -3.47187649054231
  H           1.57698125285019     -0.88142662564290     -1.96942828609626
  H          -1.37504003804078      1.25024384673815      2.43897859211249
  H          -2.27403950388895      2.49321037993239      1.58145128991536
  H          -0.50155970286234      2.55845681027172      1.61629140492320
  C           2.59100948946820     -0.70739071777365      0.88219579448739
  H           2.70261605729790      0.32518605877163      0.53495648745500
  H           3.47167068465702     -1.27795472620814      0.59285588295545
  H           2.49917975006912     -0.70777182706768      1.97415176121907
