19
Coordinates from ORCA-job P E -32.249033962350
  C          -1.43992229925140      0.49122647571522     -2.27730441014925
  C          -0.04153583277130     -1.57205240242647     -1.12929576912744
  C          -1.39527219847934     -1.85168006631104     -1.70063813453185
  C          -2.07159660829869     -0.86299214148540     -2.26491678423412
  C          -0.92064903888378      0.83631086292822     -0.87449277356876
  C          -0.07654805232717     -0.29724535642439     -0.25333797015652
  H          -1.78581166742289     -2.85429286505293     -1.64416791159404
  H          -3.05017305870518     -0.98354670817604     -2.69732759975284
  Cl         -2.60243185960812      1.75288653760611     -2.79599086334905
  H           0.31666044026707     -2.40820518946608     -0.52991954314334
  H          -0.63036489829085      0.52176439210329     -3.01694829474496
  H           0.66647396884144     -1.43118007212710     -1.95462192058237
  H          -1.79063294464785      1.01522071529373     -0.24134162711329
  H          -0.50011161121386     -0.57265556080776      0.71511135568751
  H          -0.35903191144815      1.77308226996341     -0.91148970394987
  C           1.36404671059409      0.12897935030333      0.00958790585464
  O           1.92376396181321     -0.04597308033402      1.05084525704167
  O           1.99466687344316      0.69577622660045     -1.03149735007309
  H           1.42223002638961      0.78305661209748     -1.80581386251302
