19
Coordinates from ORCA-job R E -32.161956856740
  C          -1.03129728066809     -0.05651960148355     -3.05861191391373
  C           0.01649463453866     -2.64008862602260     -1.93906158498337
  C          -1.22121510239603     -2.17269173296832     -1.81745383432717
  C          -1.64406393204757     -0.83072375464105     -2.16968746920938
  C          -1.10668434157405      1.64756896576424      0.29622989317817
  C          -0.30787387928654      0.63082721334243      0.58713379231180
  H          -1.98908408911675     -2.79551296040326     -1.37797651620919
  H          -2.52796952553226     -0.46077118744026     -1.66680923805986
  Cl         -1.54597327528201      1.56063298585691     -3.37886427737034
  H           0.27202131417742     -3.63817864326881     -1.62886447259740
  H          -0.17196733798533     -0.35583574774659     -3.63473490868301
  H           0.82280301691325     -2.03771544649077     -2.31889283940384
  H          -1.99106012876429      1.84601253383000      0.87831594784511
  H          -0.51184706827417     -0.01534052816108      1.42885738766554
  H          -0.93237200506296      2.33968327331793     -0.51424777749110
  C           0.95741057632406      0.28079199126158     -0.10831921929876
  O           1.73822664645738     -0.51063030643775      0.34581202841144
  O           1.20525186614456      0.89130299931851     -1.27762281462142
  H           0.48203991143472      1.47023857237243     -1.55624218324346
