19
Coordinates from ORCA-job TS E -32.149340781850
  C          -1.04538145338759      0.56800819895640     -1.41806178510901
  C           0.45348314025194     -1.56975696016165     -0.22139430003064
  C          -0.88419516328510     -1.63712003439552     -0.42898743652592
  C          -1.62539813616478     -0.60577345965948     -1.04747941656519
  C          -0.38814820937289      1.25554104901563      0.64372038566143
  C           0.37173066799307      0.28519861326738      1.22453448869395
  H          -1.45153038191111     -2.42710789836899      0.04219855625468
  H          -2.70329963134386     -0.67458474892691     -1.03104912750032
  Cl         -1.99740558422229      1.87114090671054     -2.02915407147234
  H           0.95557071872336     -2.31978043094586      0.36576186909688
  H          -0.01024071154015      0.63736164280114     -1.70898741288231
  H           1.09386103449852     -0.96560924568654     -0.83872014893332
  H          -1.41516372705712      1.37212784691927      0.94207605292486
  H          -0.07091446091584     -0.37781301975910      1.95131106394774
  H           0.04230993704625      2.12238565104603      0.16637590397778
  C           1.85213542460279      0.26036871597963      1.23408234342220
  O           2.48572254094737     -0.41486085853252      1.99888780656081
  O           2.48019308650373      1.04550055139376      0.33456986399682
  H           1.85667090863368      1.57477348034681     -0.17968463551810
