30
Coordinates from ORCA-job R E -38.162389206750
  C          -1.00393957956330     -0.28412764431618     -2.81951846057859
  C           0.78929720728052     -2.37124670118827     -1.58350951794954
  C          -0.52719648646513     -2.46395353825686     -1.77751593348628
  C          -1.41878172801788     -1.45264057323541     -2.28923317748210
  C          -2.75018230067242      0.69538205504386      0.69652796585057
  C          -1.52259990710405      0.69505576313430      0.22581778743245
  H          -1.01173587317308     -3.39854057085841     -1.51807509818391
  H          -2.47055095578627     -1.68956880909702     -2.22639911100372
  N          -1.75320955859236      0.75253632002126     -3.27400604799801
  H           1.35915461243277     -3.19839771245450     -1.19702903103549
  H           0.06031606756060     -0.11386704542495     -2.91620072064983
  H           1.34979103579249     -1.47610795451868     -1.79258314470114
  H          -3.15271786266097     -0.18868149554394      1.15095352039277
  H          -0.83653732713809     -0.13766223919312      0.23282646283714
  H          -3.37863581084728      1.56738056168181      0.64657166170115
  F          -0.98391001490831      1.78595189455412     -0.34331676906539
  C          -3.19442565095027      0.77979011765270     -3.12434905866296
  C          -3.70215140804485      2.17879813426905     -2.77561726831827
  C          -3.88949204639888      0.23934888624516     -4.38032330958494
  C          -1.11637463407796      1.84191561123178     -3.96933729402667
  H          -3.43389046937426      0.12246931452563     -2.28217191337200
  H          -3.61915818699108      2.85674542384481     -3.62081818717797
  H          -3.13963168803681      2.58682612923507     -1.94022744609975
  H          -4.74997806687007      2.12018654032271     -2.49103971141071
  H          -3.69374578857200      0.88453176336430     -5.23364883927054
  H          -4.96389687800305      0.19071021472801     -4.22542627961929
  H          -3.52036674222907     -0.75788248605718     -4.60610863401820
  H          -0.10906247142412      1.55194706416115     -4.26017759679750
  H          -1.04663896421983      2.73349253816299     -3.33781262358351
  H          -1.67225852294499      2.09581843796577     -4.87370222413775
