30
Coordinates from ORCA-job TS E -38.148631805140
  C           0.70807578531217     -0.33949810082792     -0.24731291240189
  C           2.27791755054919     -1.98357300040675      1.52911278563045
  C           1.20299680115622     -2.45864579530246      0.82977509635470
  C           0.41803313853819     -1.66317360400575     -0.01680747946882
  C           0.49701832564759      0.25739482201918      2.07314278605772
  C           1.36243293343975     -0.49550930964333      2.79847372938846
  H           0.81198720257136     -3.43611838204686      1.08086772425291
  H          -0.50564376025055     -2.08972289284713     -0.37917724611642
  N          -0.04790146283658      0.54595358256920     -0.94824661036650
  H           2.78839725855039     -2.63540691668104      2.22090857193249
  H           1.72204957538896     -0.00584268731516     -0.09214099184967
  H           2.88815511721348     -1.18760228030289      1.13859962892299
  H          -0.53617092742337     -0.01901606223496      2.01697238480608
  H           1.05897805275203     -1.26978685796274      3.48663406045072
  H           0.78462317468228      1.23275900483136      1.72967258649192
  F           2.54886242973147      0.05599406768490      3.17032840126456
  C          -1.47880262791187      0.36917051284591     -1.12202693947524
  C          -2.28005302407812      1.56085420873597     -0.59195056025262
  C          -1.81278725733905      0.09105492583412     -2.59046228472947
  C           0.51166490591207      1.83693880088767     -1.26141762614341
  H          -1.76313080013648     -0.50575772686422     -0.53139244251812
  H          -2.13085715602589      2.44694433946574     -1.20304259579541
  H          -1.99237762788059      1.78581040315429      0.43235214928700
  H          -3.33898313471046      1.31563147813515     -0.60374446496276
  H          -1.58324886900889      0.95355796978205     -3.21150564197137
  H          -2.87023246765637     -0.13553502474626     -2.69750335172378
  H          -1.23485122364246     -0.75684041562852     -2.94942551721359
  H           1.58585028679566      1.74476014611975     -1.41507337448622
  H           0.33665883909318      2.56800081108833     -0.46336462229618
  H           0.07133896156670      2.21720398366237     -2.18224524306857
