24
Coordinates from ORCA-job NEB E -45.446624395260
  C           0.54782652377701     -0.02497179928737      0.55496761293468
  C          -0.50092284989070     -0.43631225049453      1.40979780918054
  C           0.57760299757482      1.41976316843774      0.11233854322978
  H           1.53179026387695     -0.41405094224085      0.80966175620865
  C          -0.29597130589339     -1.54191733287437      2.26637256982073
  C          -0.00043577046553     -1.02327739675031     -0.96646184669101
  C          -1.31984491412312     -0.61402912216416     -1.19098860419291
  C          -2.27005585438510     -0.85288764464917     -0.12631691617246
  O          -1.74225275248299     -0.08631757957097      1.08912303553910
  C           0.99602513155606     -0.78044105042754     -2.07486838173966
  H           0.16309604275464     -2.01681914576273     -0.55470191054978
  H          -1.50063818224544      0.20656692897022     -1.86900952011389
  H          -2.33519743390118     -1.89091858849305      0.20498011705647
  H          -3.25598152082739     -0.42924443325921     -0.29134334354503
  C           1.08323833307438      2.28172836307259      1.26885441215867
  H          -0.42545056779829      1.74324143813524     -0.16896887841107
  H           1.24367651903868      1.55170512567573     -0.73926402046662
  H           0.41415494410145      2.20417775207705      2.12269995129341
  H           1.13257130273118      3.32174598735456      0.95751524678901
  H           2.07731799820926      1.96699226927806      1.57836891894751
  N          -0.11476152867097     -2.42473955509061      2.97975361475835
  F           2.26275226603412     -0.72083394782385     -1.63856664219096
  F           0.95620371659254     -1.78403031927039     -2.96817705840653
  F           0.77525664136302      0.34487007515791     -2.76576646543699
