24
Coordinates from ORCA-job NEB_product E -45.478187959360
  C           2.40145538379381     -1.09181289071345     -1.54111204674826
  C           1.59162519623190     -1.73410269557321     -0.42863629156778
  C           2.41391634716947      0.44582226243009     -1.43359031126056
  H           3.43073777788556     -1.45382535455666     -1.40166537051396
  C           1.68934061219353     -1.06678820093264      0.86081416163058
  C           1.88258305079292     -1.64994554599109     -2.88628445787893
  C           0.57590300738764     -1.03180448072278     -3.30619728615800
  C          -0.56898847167234     -1.68607659848778     -3.28649786155271
  O           0.91888519705111     -2.72505964274604     -0.55046860305990
  C           2.91471222195442     -1.48978326350163     -3.99608776320350
  H           1.74263580309664     -2.73155795387472     -2.76537127939512
  H           0.62408805121573     -0.00194976030475     -3.63067767123792
  H          -0.63255546888681     -2.71205540984876     -2.96495848150817
  H          -1.49015807799436     -1.21541679130625     -3.58203970356189
  C           3.61738614542307      0.95990945484162     -0.65009502749314
  H           1.48920125616180      0.79248079702946     -0.96559236447637
  H           2.45472460494181      0.87742101266766     -2.43279020230639
  H           3.63148277867897      0.56983257758309      0.36414081356583
  H           3.58383073578854      2.04471970859737     -0.59456503247712
  H           4.54194224761275      0.67308532353718     -1.14701460264741
  N           1.73272751753629     -0.59642586371510      1.90308253436408
  F           4.12294355176777     -1.95865235496064     -3.63750033080450
  F           2.55608993863000     -2.16728198975343     -5.09490774140848
  F           3.10819059323975     -0.22033233969752     -4.38288508030037
