28
Coordinates from ORCA-job P E -30.585798902230
  C          -1.34104935894578      0.24114278136052     -2.28461014973994
  C          -0.03657042356837     -1.80894540819603     -1.00906354064681
  C          -1.51495528244489     -1.91986491895415     -1.18956158716975
  C          -2.14644012057754     -0.92469917195603     -1.79233633658921
  C          -0.43232147117838      0.72157080044862     -1.13225142713816
  C           0.29222902337847     -0.43194104629798     -0.41370083103262
  H          -2.02959020994226     -2.78820534311658     -0.80762823157893
  H          -3.21512760068602     -0.93777108842739     -1.93148812383669
  C          -2.18994397573763      1.36422270072196     -2.92726316009459
  H           0.34963835938845     -2.59633004425131     -0.36120124972407
  H          -0.67153043418263     -0.13481414086667     -3.07185841044846
  H           0.45680582822014     -1.90171118484424     -1.98223496731732
  H          -1.04404550287225      1.26150423113014     -0.40984456335915
  H           0.00092136878059     -0.44265545241216      0.63808421121363
  H           0.30475592218707      1.41817511116784     -1.53027338448154
  H           1.37214804241930     -0.27868375914726     -0.45037244451392
  C          -3.24416950675804      1.91807863712926     -1.96547123827057
  C          -1.28822950770616      2.51746565115114     -3.38374181860734
  C          -2.88939824106236      0.79732093039230     -4.16932423698373
  H          -2.77909504833177      2.38787340142427     -1.10252966085057
  H          -3.90876031018475      1.13508935909274     -1.61109074732420
  H          -3.84610125926710      2.66989898769877     -2.47191223946056
  H          -0.87608718604880      3.05714476614309     -2.53536385733989
  H          -1.86262132210488      3.22304363824069     -3.98061570698942
  H          -0.46683505770093      2.14734905796814     -3.99395663030793
  H          -3.54759919027813     -0.02836060534388     -3.91405419371373
  H          -2.15593247956469      0.43615473611901     -4.88747676316595
  H          -3.48645505523067      1.56894737362518     -4.65095871052856
