28
Coordinates from ORCA-job R E -30.491445966690
  C          -1.58558233081424      0.03677230504801     -2.60964397091806
  C          -0.34618097560966     -2.56136167830030     -1.67508646599392
  C          -1.56328514626423     -2.11314804701700     -1.38673683953835
  C          -2.20794654771029     -0.94853472970673     -1.96573560581474
  C          -0.29283849985212      1.32998236837277      0.43199154492786
  C           0.79402451798168      0.66433032241366      0.10150218675277
  H          -2.16144170603990     -2.65436623233586     -0.66316567283784
  H          -3.27989590878761     -0.90537263913487     -1.82021001753412
  C          -2.24888992900634      1.24117173739639     -3.22778809455770
  H           0.06301080239196     -3.43498735632391     -1.19722526412291
  H          -0.51157003208352     -0.00771528117685     -2.72582835138472
  H           0.28138904479617     -2.08367016718885     -2.40867732790391
  H          -1.26904328421475      0.88008541468153      0.35671516959242
  H           0.74678000573034     -0.35232200209156     -0.25353576833526
  H          -0.25820832738769      2.34714980502362      0.79337146776268
  H           1.77624455421846      1.10224206958471      0.17218428274476
  C          -3.26003415750525      1.88034951721336     -2.26824878084123
  C          -1.17681790892886      2.27651667164973     -3.57577684997795
  C          -2.97123461129450      0.80044287901027     -4.50935187761419
  H          -2.76386392436591      2.19269953565193     -1.35213147753958
  H          -4.05460491916405      1.18474983172830     -2.01359305298784
  H          -3.70949974391386      2.75555775668117     -2.73269126159410
  H          -0.63899352718929      2.57466216891422     -2.67787548222207
  H          -1.62762782623719      3.16170119499423     -4.01942146815780
  H          -0.46254474035179      1.86482492892814     -4.28597286280176
  H          -3.74326914344214      0.06982603791797     -4.28069390945679
  H          -2.26845768447701      0.34684385486467     -5.20502414666152
  H          -3.43523805047843      1.65662973320129     -4.99476010298411
