28
Coordinates from ORCA-job TS E -30.478656866820
  C          -0.02455294930078     -0.29251213568751     -0.33335819556745
  C           1.41710620148839     -2.46912644100899      0.90703623845547
  C           0.06060915235092     -2.37387739952932      0.93171823605025
  C          -0.63886336420708     -1.30296425441434      0.33447332574023
  C           1.35165384710344      0.40993077862972      1.51049788097515
  C           1.92989373911972     -0.67740493571684      2.07314799315905
  H          -0.49741524731638     -3.01213130681749      1.60431692844662
  H          -1.69043297324191     -1.22160975402318      0.57109455254492
  C          -0.76472077765705      0.86954886124102     -0.95463667711836
  H           1.91150361802188     -3.25360936923187      1.45793097544498
  H           0.95665549547237     -0.45880891989797     -0.74903359786333
  H           1.98670557217859     -2.05409928372150      0.09490202666579
  H           0.44335275205692      0.82240159236448      1.90930832215904
  H           1.51130658665177     -1.11376698773841      2.96422883457740
  H           1.88992441885458      1.01308735451395      0.80243795897423
  H           2.96489237095035     -0.90477756917976      1.88110270010934
  C          -1.89856020296710      1.39185335991213     -0.06830126951555
  C           0.19786740828235      2.02205275429622     -1.25860118016425
  C          -1.35561906546388      0.36421126804796     -2.28264968977540
  H          -1.53219331781000      1.63545921802971      0.92581463982698
  H          -2.69338887992016      0.65746887406106      0.02852302525696
  H          -2.32550764769840      2.29200079385694     -0.50574729022792
  H           0.55107871936701      2.48232514842070     -0.33960312948098
  H          -0.30616374039917      2.78625278913427     -1.84711258160490
  H           1.05716489641609      1.66982408352122     -1.82571607932265
  H          -2.03294548875517     -0.46786076662714     -2.10576950574330
  H          -0.56409346555854      0.02464512071757     -2.94713030319488
  H          -1.90525765801876      1.16148712684739     -2.77887413880741
