24
Coordinates from ORCA-job P E -27.677609451970
  C          -1.64943155249227      0.18025053378617     -2.16619950390695
  C          -0.05217293493833     -1.72327867536236     -1.02823190120944
  C          -1.48284435906179     -2.07067077660724     -1.28686717319379
  C          -2.25977167982228     -1.14714718645593     -1.82896520005483
  C          -0.86839888571538      0.69478822523970     -0.94347136835290
  C           0.03294925021326     -0.37295309234306     -0.29079740483458
  H          -1.84631976975592     -3.04777168408086     -1.00881919511779
  H          -3.31080944299751     -1.28763020278280     -2.01785375301293
  N          -2.67010177982642      1.14625915431265     -2.54267571364809
  H           0.44396784726116     -2.49479139543406     -0.43884473639111
  H          -0.92348575344243      0.02610838799193     -2.99375970755454
  H           0.47989887625018     -1.63427112400930     -1.98123614099675
  H          -1.60444926235659      1.05317066418989     -0.22249209903208
  H          -0.31867695633677     -0.54445006041628      0.73149189920373
  H          -0.26353139962203      1.55072819847549     -1.25179739514066
  C           1.48474009803818      0.09579599037284     -0.22289540800834
  C          -3.15478355183376      0.97336859156468     -3.89590144209403
  H          -2.29833113989582      2.08598706019366     -2.43792940479930
  H          -3.61502228660143     -0.00961874767237     -3.98831107988302
  H          -2.36139007201848      1.04977386089404     -4.65745023207491
  H          -3.90990075910336      1.73069618036437     -4.10000969247769
  H           1.87300381071328      0.28037911451303     -1.22276157538169
  H           2.10750390118303     -0.65982372811715      0.25156189166233
  H           1.56435780216149      1.01481071138293      0.35376633629934
