24
Coordinates from ORCA-job R E -27.601037854760
  C          -1.20529370393528     -0.42271323773656     -2.87626969493409
  C           0.34783350251836     -2.90758278464350     -2.12381550892580
  C          -0.93992973653668     -2.66774930263501     -1.87962458702752
  C          -1.71368710113582     -1.51912012649483     -2.28988831053376
  C          -0.64055910651926      2.23149813146327     -0.58167570085830
  C          -0.57834162507210      1.01459441753296     -0.07396204412867
  H          -1.49347731798958     -3.39492385512868     -1.29705785371253
  H          -2.76985317852452     -1.57000546640907     -2.07076182355087
  N          -1.90535271570606      0.66494317443174     -3.33088953499365
  H           0.82876606356012     -3.79787292311635     -1.75658325333355
  H          -0.14580325224152     -0.35946888713015     -3.07845738344766
  H           0.96162084538041     -2.24934260822173     -2.71424276726594
  H          -1.57234458519221      2.75858747180826     -0.70259083442795
  H          -1.48252370558947      0.50645042120249      0.23582427927334
  H           0.24689948615736      2.75835665366974     -0.89491028202471
  C           0.68002774019966      0.24229834590235      0.12677020383714
  C          -3.29719981233086      0.84169091039223     -2.99699823483360
  H          -1.37245671596545      1.52091927747599     -3.36330465740405
  H          -3.46500318862714      0.92015490588328     -1.91584600805235
  H          -3.86729195126704     -0.00548690005122     -3.37806884953006
  H          -3.66357687911964      1.74782540041746     -3.47589395572306
  H           1.54765073605490      0.81115605236863     -0.19854098495802
  H           0.63250120316957     -0.69416716620190     -0.42793214955116
  H           0.79913499871225     -0.00759190477941      1.18090993610683
