24
Coordinates from ORCA-job TS E -27.581169072610
  C          -0.39279826026087      0.14294601672179     -1.17248319639297
  C           1.05792491095276     -1.76817678594657      0.40382673409375
  C          -0.24825551029958     -1.95190809658857      0.04607234201779
  C          -0.96585307367390     -1.01398431491935     -0.71124092414772
  C           0.17562172733430      0.92220251359595      0.99248500667946
  C           0.95798128705711      0.00575584587749      1.63240983287579
  H          -0.81900138291937     -2.73419380308066      0.52933589493419
  H          -2.03549040147877     -1.14203441927803     -0.78427167098230
  N          -1.07422776072469      1.18894354277952     -1.74044231327169
  H           1.52983081204933     -2.49175514485805      1.05062529031892
  H           0.67388273161255      0.19758709475402     -1.31486778785945
  H           1.73318948681938     -1.23847972286189     -0.24363555345168
  H          -0.87882362386820      0.98596816320755      1.18676987728561
  H           0.51494688178696     -0.58938779002132      2.41885649494142
  H           0.61865240182976      1.75408161593750      0.47390734878053
  C           2.44047583744539      0.23405840073793      1.76492995834543
  C          -2.50751090674242      1.19979068955991     -1.86866817320298
  H          -0.57155232860320      1.74142274458883     -2.41513014810738
  H          -2.95671344219584      0.98301958824083     -0.89928956021462
  H          -2.87569462682114      0.46362874910420     -2.59523790583087
  H          -2.82801418390712      2.19141084911538     -2.18387854842438
  H           2.84595376876860      0.69561002387563      0.86697760836585
  H           2.98084691861995     -0.68829569205191      1.96193483255047
  H           2.62462873721900      0.91178993150981      2.60101456069683
