21
Coordinates from ORCA-job NEB_reactant E -29.173338635850
  C           1.47292544406932      0.24438066526253      0.20103502785934
  C           1.00132233791015      0.53408352643222      1.41087708903898
  O           2.29979714603784     -0.81748188201570     -0.11847312142873
  H           1.18393302603798      0.88536450566658     -0.61993456752654
  H           0.33916048398213      1.38297303676177      1.50528714266168
  C           4.32603292488748     -0.82616105699928      3.84666618142438
  C           3.50614143187769     -0.60116415554473      2.83464697533836
  C           2.09975359344192     -1.11449272310813      2.75350519633876
  O           1.15167616705782     -0.06426993905766      2.61736978092679
  C           5.73714356805678     -0.33749718437922      3.92598145352148
  H           3.99662768067591     -1.42748967233011      4.68490304097634
  H           3.82306625603903     -0.00195696582267      1.99219956878077
  H           1.82423594968567     -1.62309596983499      3.68131361883353
  H           2.00856992318703     -1.81360985449809      1.91491366116121
  H           2.65828586144740     -0.68603823844646     -1.00013205015428
  C           6.71961459592817     -1.50558228606630      4.00967914917370
  H           5.84936998026295      0.28527817720375      4.81828245251656
  H           5.96701517506871      0.27577589149296      3.05295885759260
  H           6.51205077140543     -2.11645317423088      4.88542282955243
  H           7.74157002982511     -1.13994945148008      4.07841815857214
  H           6.63420765311547     -2.13341324900553      3.12567955484051
