18
Coordinates from ORCA-job NEB_reactant E -30.702380178650
  C           1.81968941634021      0.01091487165781      0.19827998595600
  C           1.64158461416735      0.23022856666078      1.50947205883631
  C           1.58020932663648     -1.18278201981746     -0.49037587556899
  H           2.18795027292478      0.83068819823733     -0.40112303701549
  F           1.93246302640206      1.45422949556666      1.97584830353193
  C           2.47802494638912     -3.56438425187061      3.26589826231978
  C           2.13317202738899     -2.73676511511072      2.29286038618727
  C           0.89631641488260     -1.89073728506928      2.32530228537489
  O           1.19893028329612     -0.50492951039360      2.51128614476720
  C           3.69788994571898     -4.41744404339761      3.25558140859301
  H           1.84627627141182     -3.66077988720914      4.14005457254030
  H           2.75372930321263     -2.63143429362777      1.41408874187850
  H           0.28041068913991     -2.14293673320302      3.19135515089890
  H           0.31105811850397     -2.02073055832648      1.40844056188828
  N           1.41069448101216     -2.13650483073563     -1.10789989605822
  H           4.27425076493727     -4.26635497700701      2.34703094595556
  H           3.41853971857817     -5.46776569370305      3.32742004708437
  H           4.32291037905741     -4.18451193265120      4.11697995283042
