14
Coordinates from ORCA-job NEB E -30.601470699120
  C           0.09344504274265     -1.42657893216639     -0.48463937600171
  C          -1.14548295122771     -0.98323313986048     -0.03573454937465
  Br          1.24452843191348     -2.22122373729991      0.78585043384423
  H           0.16870461744708     -1.89277239860700     -1.45861826201130
  F          -2.05215424017553     -0.77842218342218     -1.05592028790567
  C           0.88832467490780      0.44783487513202     -0.75485016156790
  C           0.68660397747813      1.00410493857402      0.50215538352641
  C          -0.62725014764559      1.25011706756574      0.93224423766999
  O          -1.34324452650194     -0.35338411656618      1.02087769661845
  Cl          2.50010701600403      0.11426667623229     -1.28675933378885
  H           0.22994904235930      0.70550690011006     -1.57720696343607
  H           1.46733427238371      0.89517905908512      1.24128113738001
  H          -1.33577868301870      1.65815184981437      0.22170617887219
  H          -0.77508652666670      1.58045314140849      1.94961386617487
