14
Coordinates from ORCA-job NEB_product E -30.649654565590
  C           2.34965338585734      1.40560125928299     -1.09591161947665
  C           1.30659713903723      1.22474585886501     -2.16441835503097
  Br          1.51766346195319      0.67508488129301      0.52944376730245
  H           3.23122734951740      0.79184377291076     -1.29135316019040
  F           1.47060952573946      0.03980448744436     -2.79824015361957
  C           2.69956456561547      2.86839535353755     -0.87869157570156
  C           3.65439304865358      3.07987016240664      0.24575184162788
  C           3.43828911959660      3.93459825466924      1.22845466282172
  O           0.41678816621570      1.93918860738007     -2.45146910625511
  Cl          3.46899432484446      3.41499936822267     -2.42329768878505
  H           1.79077029165374      3.46399470278666     -0.75617476352049
  H           4.55922840426388      2.48999931040308      0.20180925306359
  H           2.54205499072896      4.53036601962880      1.27765324814372
  H           4.14776622632299      4.06500796116916      2.02604364962044
