14
Coordinates from ORCA-job NEB_reactant E -30.630511851740
  C           2.17165068648889      0.48229287573397     -0.69608141334830
  C           1.34859237863206      1.47453137866214     -1.02147378718776
  Br          3.48650658216109      0.47991909079198      0.65023782719870
  H           2.10152792669387     -0.44808579166215     -1.23247533398292
  F           0.47833523368454      1.20844452931025     -2.01653576838243
  C           3.67519504746727      3.52709706421248     -1.59795242019127
  C           3.40178453328971      3.58242519563374     -0.30479202292625
  C           2.02773167129354      3.37562836540386      0.26420087735784
  O           1.12744524667348      2.72308421178454     -0.61514726808733
  Cl          5.25553889642268      3.76137429888330     -2.22027451843171
  H           2.93421336928166      3.33310206118167     -2.35921063167487
  H           4.17291695803435      3.78545020641341      0.42205944214655
  H           1.55299641076167      4.34552501731784      0.45011111915486
  H           2.09206505911519      2.84171149633297      1.21863389835490
