23
Coordinates from ORCA-job R E -37.661046912140
  C          -1.09102873572471     -0.03226970684551     -2.76974413196994
  C           0.07519710474750     -2.81760791438126     -2.56561449521659
  C          -1.11932600836812     -2.43722525296224     -2.11956267341415
  C          -1.58902184454152     -1.07176622487443     -2.08231060935763
  C          -1.41032129024683      1.69656333709289      0.88466980816653
  C          -0.53008547625673      0.71102454268022      0.83842054831661
  H          -1.79970015705504     -3.17557915930930     -1.71490742821870
  H          -2.44068087152419     -0.87501532404274     -1.43994011975015
  C          -1.64306480405519      1.31848579436477     -2.61447518135841
  H           0.38024557837874     -3.85037115178818     -2.55574980818852
  H          -0.26555186629743     -0.14513103487308     -3.45411093174152
  H           0.80073018593325     -2.11111380570135     -2.92887933979374
  H          -2.19633223825533      1.71447257427391      1.61575389626648
  H          -0.51154010065046     -0.14816935240187      1.49120169201195
  H          -1.37929854475551      2.50001996615544      0.16878663267329
  N           0.50272457753294      0.67589605059747     -0.15445910528683
  O          -2.52262344404984      1.57862981259689     -1.81380047068012
  C          -1.00337517283948      2.36286834303011     -3.48876559022849
  H           0.00685702489175      2.53761591522677     -3.11972107368883
  H          -1.56493715716587      3.29182052264673     -3.43785495739198
  H          -0.93850902607179      2.01779068055949     -4.51754583178383
  O           1.16277343744429     -0.33946127257100     -0.21896298005286
  O           0.66154882892956      1.64417266052627     -0.86673784931258
