23
Coordinates from ORCA-job TS E -37.650767834950
  C          -0.52561214613209      0.13047172051816     -0.79883284995964
  C           0.89203996207191     -2.23475458613333      0.12247826619607
  C          -0.42408100408602     -2.23717037564773     -0.17069552370470
  C          -1.10899325775552     -1.10404258586640     -0.67206833929212
  C          -0.28049599039084      0.57918415281212      1.29274619312717
  C           0.58728532027290     -0.31293685873957      1.84259990212636
  H          -1.02721786701230     -3.09140779013918      0.10528419519140
  H          -2.18337615756789     -1.16244586056571     -0.78836291982613
  C          -1.34955859252905      1.27956886892839     -1.25774988173240
  H           1.35304395467763     -3.06469834036557      0.63099694205687
  H           0.54218944293051      0.23026069538899     -0.93219731338022
  H           1.56685548502016     -1.50046666554318     -0.27977126482654
  H          -1.32693957699447      0.53590024415973      1.53771323449117
  H           0.30925333845459     -1.14408116583813      2.46713594760505
  H           0.11027759081330      1.53495438390276      0.98162457501810
  N           1.97831025999991     -0.09462973406717      1.73268505827249
  O          -2.55141736475758      1.30143859758956     -1.12927560528080
  C          -0.56111919247455      2.39458868182019     -1.88948198927857
  H          -0.13592757935078      2.03850986838896     -2.82667885157494
  H           0.26297538630537      2.69284773821479     -1.24508671151572
  H          -1.20451078553280      3.24670377471369     -2.09041770788018
  O           2.71336936729334     -0.75852895245730      2.43865980789283
  O           2.36364940674426      0.74073418892593      0.92869483627445
