15
Coordinates from ORCA-job NEB E -30.379428218100
  C           0.36100263800181      0.67636307135431      0.58479444440350
  C           0.65202054329230      0.75476219545845      1.95706348089056
  C           0.08591951615839      1.84480405684670     -0.21195960683713
  H           1.16444519974031      2.06889784280162      0.21550204624823
  Br          1.26280519631906      2.72871263871533      2.40560327555374
  C           0.36140206345904     -0.65093169830375     -0.08527786509633
  C          -0.69939454132102     -0.84211109338436     -1.10607990018309
  C          -1.46569397115422     -1.91790626052224     -1.14227625138426
  O           0.61582416864381     -0.01726763892374      2.84932446870326
  Br          2.17311179419554     -0.93242829980862     -0.99814322483290
  H           0.34888549029937     -1.43220477568960      0.67793522577329
  H          -0.80273434323454     -0.05073554859695     -1.83504359796722
  H          -1.36515928943817     -2.71628641800574     -0.42506955716438
  H          -2.22519698114571     -2.03954430408105     -1.89388688923926
  N          -0.46723748381596      2.52587623213963     -0.99248604886801
