26
Coordinates from ORCA-job P E -32.806360900690
  C          -1.18850178948574     -0.23200821736846     -2.85553767555659
  C          -0.64982368760391     -1.38930860508831     -0.44463472101004
  C          -2.04474206261718     -1.48180671179243     -0.97310816086660
  C          -2.30664649828425     -0.92649479770977     -2.14591826370879
  C          -0.47075499293991      0.71950676636178     -1.88615870330014
  C          -0.13798697508353      0.06747821983541     -0.52612295894086
  H          -2.79466337672403     -1.98944042015635     -0.38643526913281
  H          -3.28737447052902     -0.94343324292547     -2.59511601916887
  H          -1.54993825143690      0.32743563717653     -3.71896063457662
  H          -0.58783067871288     -1.73590022528721      0.58754280007713
  H          -0.47465625166737     -0.97968640242758     -3.21596981878426
  H           0.00653342369043     -2.02359582847440     -1.04842346791650
  H          -1.11999067100585      1.58010772240731     -1.71538547632172
  H          -0.65516103505003      0.62870832189364      0.25852547390628
  H           0.44208353717559      1.09038598124939     -2.35552724034659
  C           1.33856619825420      0.09417096640335     -0.22612736695603
  C           1.80971092978683      0.63328237096646      0.96352250004404
  C           3.16344468060440      0.64350104425263      1.25196339147147
  C           4.06887234323163      0.11099111885930      0.35158770149713
  C           3.61108307924608     -0.43160399485953     -0.83728355726677
  C           2.25817909958424     -0.44020770935817     -1.12192102244970
  H           1.10898399297247      1.05184393490969      1.67259429998991
  H           3.51144353007236      1.06913002668022      2.18209820107568
  H           5.12580626528812      0.11833830595564      0.57398285688688
  H           4.31191884924665     -0.85023453951705     -1.54535464128592
  H           1.91466481198763     -0.86623972198664     -2.05366222735973
