20
Coordinates from ORCA-job NEB_reactant E -49.903725348010
  C           2.61077024775734      1.40052842807925     -0.00373425056755
  C           1.46526965181041      1.81328483641705      0.53700820677197
  F           3.62177788231776      0.84062690567401      0.68416049672617
  H           2.83413050009216      1.48306144112904     -1.05432999889531
  C           0.42825088487036      2.44729083894316     -0.36867010924767
  C           3.09740186766904      3.54694544607350      2.60018898276605
  C           3.05585035590853      2.31108569333241      3.07329815092258
  C           1.91168328142764      1.37219378500318      2.83825235344565
  O           1.02882462777006      1.78725370488600      1.81488172843973
  C           4.22408134801141      4.49813001574914      2.76624177148494
  H           2.27859314096849      3.95784649522680      2.02421068700099
  H           3.86662811236735      1.90283794352076      3.65707192800985
  H           1.28530535890044      1.32535385471351      3.73563643675693
  H           2.29628686622645      0.36558154894650      2.63675566713046
  F          -0.76450425599354      1.82893600243220     -0.24835478189339
  F           0.23038707672040      3.73845642899109     -0.01339581299948
  H           0.71948424025997      2.42832211767154     -1.42921242035700
  Cl          4.89064117901545      4.88239940054352      1.14749742826348
  Cl          3.62389254221013      6.01686809364143      3.49174109810935
  Cl          5.54054509169017      3.88369701902587      3.77185243813226
