16
Coordinates from ORCA-job NEB_reactant E -27.356537575720
  C           1.78003317762865      0.18282295007246     -0.09520160605905
  C           1.33883611089024     -1.01770029140352      0.33319656320034
  O           2.82166760707510      0.31394754914382     -0.95041970885472
  H           1.28909202556337      1.07716026568906      0.26509791521562
  C           0.23915021973906     -1.01852736437380      1.22242731199987
  C          -0.13603591631532     -4.67646540065010     -1.34300129422287
  C           0.05306945161716     -3.60879574791850     -0.59254807091624
  C           1.26782471593268     -3.38999217987403      0.26219482049953
  O           1.94343553606657     -2.18285632320405     -0.04520157488334
  H          -1.02464951188209     -4.80263414939609     -1.93708986612227
  H           0.58710509288593     -5.47428868520944     -1.38556742384532
  H          -0.68082178941084     -2.81393618912509     -0.55984403240649
  H           2.00815492187104     -4.17373533313888      0.08601966774175
  H           0.97685458672600     -3.40222708154157      1.32421777002967
  H           2.99823536571439      1.24174095745008     -1.13442383043493
  N          -0.66015159410195     -1.01291297652036      1.93684335905844
