16
Coordinates from ORCA-job NEB_product E -27.354159096760
  C           1.70580012043612     -1.18983697968091     -0.56486361132250
  C           2.02913840539577     -1.36765420879929      0.91593078339681
  O           2.90960829518586     -1.00994745660909     -1.25593727592293
  H           1.04785130870892     -0.30990312282702     -0.68124336187254
  C           0.90943419318647     -0.97367170437927      1.76157952438272
  C           0.94396896640357     -2.45755927090417     -1.01784141919968
  C          -0.34300586857740     -2.63359879524902     -0.27420812326036
  C          -0.62231113108904     -3.67515263867541      0.48632072632294
  O           3.05856540461987     -1.79355956276717      1.35672425545276
  H           0.73661922612240     -2.35616248278209     -2.08877252574970
  H           1.59472150671286     -3.32258787937459     -0.87174139296889
  H          -1.06282059643349     -1.83470956394347     -0.39663484372109
  H           0.07820616961608     -4.48273890684390      0.62291066602646
  H          -1.56150581415220     -3.76394427211680      1.00299713208602
  H           2.75459608815031     -1.08389930931054     -2.20409698502930
  N           0.04493372571391     -0.62227384573724      2.42427645137926
