20
Coordinates from ORCA-job NEB_product E -42.017033114470
  C           1.48163093306555     -0.03899177460260      2.34248906363397
  C           1.18263468053625      0.92301372144181      1.19912259225933
  C           1.41181660235271     -1.48964802445685      1.86576821895316
  H           2.51738589550333      0.11667831039667      2.66810271967236
  H           1.36613529059781      1.97377845820528      1.48962322815345
  C           0.51975793263173      0.32170083994801      3.50201374420285
  C          -0.90292971117075      0.44091128461599      3.02007075041792
  C          -1.57608982925611      1.57508338308855      3.02144079779537
  O           0.77728633762303      0.62042553091446      0.12173062202135
  C           0.61390261773903     -0.66752623032200      4.67029582461735
  H           0.83771343161421      1.29845991597694      3.88546851435609
  H          -1.36467180661281     -0.47347791297114      2.67802825632177
  H          -1.14217469573988      2.49846803179873      3.36943417354621
  H          -2.59535856773462      1.62564156673713      2.68215178755217
  F           2.19486438678927     -1.68419576936574      0.79944951882386
  F           1.86916311369798     -2.33766628654478      2.80993415926194
  F           0.19011042149143     -1.91230902227873      1.54679194373712
  F           0.05141994023488     -0.09090680831015      5.77871647588535
  H           1.65306161272659     -0.89683191160051      4.92825911786137
  H           0.06014141391037     -1.59090730267110      4.47760849092699
