20
Coordinates from ORCA-job NEB_reactant E -42.018543922180
  C           0.91178843060308     -0.44950356066186      0.16675750121719
  C           0.58047108878700      0.40362564569445      1.13752822487506
  C           2.16349929768353     -1.25742236665906      0.22521933987894
  H           0.29865247982110     -0.58853060616775     -0.70352889876567
  H          -0.34197330152966      0.97288194260244      1.06402503650547
  C          -0.06825462776949      0.37745236478154      5.34097652065533
  C          -0.19734181542222      0.64474230952678      4.05304164866266
  C           0.80937871128687      1.41170548789013      3.24852894450447
  O           1.35145575502022      0.61823412339422      2.20314159056517
  C          -1.06305818529196     -0.39215612210981      6.14722698288811
  H           0.78813551807674      0.71816171514701      5.90560387415641
  H          -1.05721932131796      0.28103614829757      3.50666304840135
  H           1.66363094921516      1.69806516581151      3.86514765257059
  H           0.34509167532575      2.31531045180237      2.82761405937984
  F           3.28354248237015     -0.50848643174984      0.20244968298891
  F           2.25512610314561     -2.01953803592962      1.33087450575764
  F           2.25781498480278     -2.09825560140536     -0.81805366022854
  F          -2.16606466862574     -0.73848368279175      5.41123388381348
  H          -1.42231340546361      0.20200881165440      6.99688339461091
  H          -0.62126215071735     -1.32504775912736      6.51926666756269
