22
Coordinates from ORCA-job NEB E -37.432279381910
  C           0.35779058821485      0.90340438816028      0.39044834694576
  C           0.73654875373095     -0.42633781876376      0.57222042099081
  O           0.99209622521236      1.65570422120244     -0.56749959347864
  H           0.02405506551974      1.43628174210908      1.27598790027301
  O           0.36786211891824     -0.94775823539671      1.78304436717204
  C          -1.42744158596007      0.46457896943133     -0.65025692885092
  C          -1.38221173156808     -0.86964216794861     -0.99934430101984
  C          -0.18860805066661     -1.32250263002959     -1.60271210117556
  O           1.01556287816286     -1.21546801928063     -0.39443133347283
  F          -2.42068146795006      0.88910878377090      0.15795183910072
  H          -1.15433181295806      1.23530153441929     -1.36177139476019
  H          -1.96136713753191     -1.55982395911097     -0.40022947743231
  H           0.26803675910399     -0.66423277983841     -2.33198453954557
  H          -0.10952416936489     -2.37128536089148     -1.85241006665286
  C           0.76962593055152      3.04381286986539     -0.46691047803217
  H          -0.29165940002351      3.29483071941607     -0.57072611530132
  H           1.33058250692046      3.50045011289786     -1.28000681173427
  H           1.13169999411791      3.43324361253803      0.49030375636885
  C           0.46842587628837     -2.35348011479145      1.91579358287082
  H           1.50764694978729     -2.67597931597769      1.81049026671165
  H          -0.13776628994279     -2.86852656460491      1.16771049447150
  H           0.10365799943744     -2.58167998717647      2.91433216655130
