22
Coordinates from ORCA-job NEB_product E -37.491227986980
  C           0.93435136317789     -0.13837991470314     -0.93281014212139
  C           1.69701162365744     -1.46311606192341     -0.85933729517111
  O           1.87308905940677      0.85966962960670     -1.22913887504697
  H           0.44309910170209      0.05105781384529      0.03471433268577
  O           1.39125534173037     -2.10426151888516      0.26737770329800
  C          -0.16112389642128     -0.30301640617925     -2.01689595983684
  C          -0.82133338599576     -1.64346999887552     -1.91706074700298
  C          -0.56730178451212     -2.64849379355192     -2.73287915633587
  O           2.44236530275367     -1.87018693041911     -1.70333362922498
  F          -1.11739125445270      0.68282861271104     -1.83666779321881
  H           0.28697836802448     -0.13703703427319     -3.00286200221439
  H          -1.53149282344203     -1.73194365371926     -1.10651092615117
  H           0.14256988550807     -2.55798910587505     -3.53779617333340
  H          -1.04715328155969     -3.60488095093713     -2.61692555185645
  C           1.39589268830716      2.18007378883109     -1.07978756802551
  H           2.25926114760341      2.82461268192848     -1.23002159407915
  H           0.98861168386470      2.33841417328536     -0.07474881379922
  H           0.62640683504703      2.42424208771728     -1.81694973064704
  C           1.98404597363075     -3.38266162071480      0.48623260611364
  H           2.65940585751346     -3.62239588345848     -0.33615418597811
  H           1.18565344118364     -4.12188063381871      0.54775435586765
  H           2.53109875327264     -3.34518528059112      1.42750114607831
