20
Coordinates from ORCA-job NEB_product E -46.080920797370
  C           1.57711572949781     -0.40109004991870      2.36717071466279
  C           1.02644233136308      0.48219401927375      1.26575594690836
  C           1.88498698344632     -1.79067192741566      1.79998482021244
  H           2.53382143556051      0.00064952470258      2.71800610349428
  Cl          1.15694410082962      2.17842411203626      1.69130471677946
  C           0.55329376938637     -0.38464855967523      3.53476121977381
  C          -0.85868706667476     -0.57683286226762      3.04540920267723
  C          -1.79245506064287      0.34745927695124      3.16060053970986
  O           0.53281867081749      0.14483303445790      0.24763457505401
  C           0.89618877716045     -1.42086802415385      4.61333455596251
  H           0.62548083456443      0.60354257117883      4.00250052727203
  H          -1.08134662223871     -1.53589393349345      2.60163049637115
  H          -1.59419101867674      1.30755578295451      3.60840406538140
  H          -2.79730878810711      0.17846944292553      2.81656911653154
  F           2.62626578371971     -1.70254587361534      0.69032653262010
  F           2.61133405396723     -2.51541869697796      2.66976161798278
  F           0.81292460001738     -2.52089568266841      1.50417386495994
  F           0.19915457982474     -1.11219156361531      5.75040361103276
  H           1.95817616532529     -1.39769936495353      4.87921518665715
  H           0.59934074085976     -2.43357122572552      4.32455258595640
