20
Coordinates from ORCA-job NEB_product E -36.865404343680
  C           2.68124316376811      1.02682445878407      0.40954688247329
  C           1.25803414683412      1.57197640330826      0.29840501350740
  C           2.59331572728689     -0.47532197933360      0.68959269066429
  H           3.22143719813064      1.19734277849733     -0.52600471159967
  C           1.09725495065086      2.59894207504265     -0.81031261037020
  C           3.35051136641070      1.83298581431039      1.54084823367737
  C           2.99560737646199      1.37146444090446      2.90802966838587
  C           2.30524382667945      2.10853509399814      3.75891721931176
  O           0.37093792298644      1.23838402511004      1.03046893214882
  I           5.52923942802307      1.81236482278616      1.31451893030163
  H           3.09244531932125      2.88759477457787      1.42221968253970
  H           3.35371262476405      0.39018423811295      3.18528953986853
  H           1.95014935426822      3.09413134828247      3.50476260870598
  H           2.05802400416928      1.75026082768869      4.74245151937899
  F           3.82415256713327     -1.00806043826290      0.95021177680590
  H           2.19708357952707     -1.00001302905404     -0.18637348255379
  H           1.95567530708841     -0.66970463024674      1.55734638628799
  F          -0.12204114094165      3.20298274954787     -0.76278484082356
  H           1.18177846951070      2.10093479098100     -1.78475499844256
  H           1.85929480792714      3.38359143496490     -0.73327844026773
