20
Coordinates from ORCA-job NEB_reactant E -28.688288681760
  C           1.85520091586173     -0.56055083855595     -0.51838221304464
  C           1.03137565101826     -0.50449001794120     -1.55977882644777
  Br          3.52015006099835      0.31169887909031     -0.24153996098341
  H           1.59268463911955     -1.17234508410927      0.32700156315808
  H           0.12249464354057     -1.09475477593345     -1.48337123886466
  C           3.43418066941331     -1.11776026600037     -3.63772184381367
  C           3.38497547466481      0.18557701817141     -3.42240571499213
  C           2.12545717555940      0.94872406922412     -3.12249362147386
  O           1.02826633630285      0.13608355963053     -2.73572273070291
  C           4.66100860306851     -1.92794012849173     -3.91562204762792
  H           2.51762485168998     -1.69613307731341     -3.60977319735454
  H           4.27076180223839      0.80077187001852     -3.44367826291331
  H           1.77396792174868      1.45643046452891     -4.02860729016606
  H           2.31959564815998      1.71628113422181     -2.36404954160092
  C           5.96527133806166     -1.14277493593857     -3.90656297968699
  H           4.53256995668768     -2.41668007433517     -4.88706457979037
  H           4.71430578251198     -2.72590172937538     -3.16772441904177
  H           5.95882368261762     -0.37569174467923     -4.67709977445233
  H           6.80175261472111     -1.81121801646729     -4.09667771436721
  H           6.11773223201556     -0.66842630574460     -2.94022560583361
