24
Coordinates from ORCA-job NEB E -43.022052413410
  C           0.07880095645728     -0.66029043224218      0.04698925365251
  C          -1.09249302883578     -0.46628635199313     -0.72089488524435
  O          -0.03040106011670     -0.73612709441282      1.41977441134481
  H           0.80495569692015     -1.37139118250318     -0.36285716008489
  C          -1.17501041570206     -0.90468600515486     -2.12388061284211
  C           0.91893260769778      1.03672714007692     -0.07268339703516
  C          -0.11079715338371      1.83152698116606      0.42721296439351
  C          -1.35784869074975      1.88848526339649     -0.29943131309653
  O          -1.94691052657019      0.46753042623331     -0.34041699156145
  C           2.20645639314027      0.91998076593054      0.69761685635919
  H           1.07115012184599      1.05025909752914     -1.14904917278813
  H          -0.12190533268379      2.06524599867927      1.48090449483818
  H          -1.25323218546376      2.15950927352780     -1.35226888080992
  H          -2.14495016089340      2.46424996567363      0.17755372357026
  C           0.01546543929605     -2.05588380830506      1.91859015767652
  H          -0.00857738951247     -1.96760070338832      3.00235555034832
  H           0.93586850361961     -2.56362814989138      1.60873851231067
  H          -0.84558628094633     -2.64017628417730      1.57831592167667
  Br         -0.62860729361567     -2.74415228335014     -2.36212730047531
  Br         -2.96529164093343     -0.66818076784042     -2.79304167231751
  Br          0.05089936337143      0.19017973675836     -3.43391183249074
  H           2.80473452280019      0.08872870276667      0.33313554554698
  H           2.01100933145716      0.78250321903096      1.75725709143921
  H           2.78333822280111      1.83347649248969      0.56211873558927
