24
Coordinates from ORCA-job NEB_reactant E -43.053296857060
  C           1.68537320869425      0.36606949931935     -0.13408322255170
  C           1.41521331721118      1.20961667325627     -1.13875795459941
  O           1.39448008372779      0.59935977227226      1.16875528285133
  H           2.16484934486016     -0.58122674615990     -0.35955178548909
  C           1.73923241619266      0.79798150832590     -2.53578287922376
  C           3.43504846093389      3.42693708755717     -0.31254553096243
  C           2.41144921956689      3.39399229470200      0.52497078357524
  C           0.98262120868290      3.19504494669250      0.10538392725390
  O           0.84961092190689      2.44749862590746     -1.09464648469851
  C           4.86045223706736      3.58600985862537      0.08746560315594
  H           3.26588715947830      3.34109032902713     -1.37881987222918
  H           2.56368553311413      3.49615265374718      1.58996609071883
  H           0.50825609061833      4.15325950810570     -0.13278168864477
  H           0.41899261824673      2.71146424742412      0.90980758487692
  C           2.03888411753543     -0.25604092682686      2.08734845717510
  H           3.12075991884098     -0.09153451591755      2.08445147371283
  H           1.83196912387887     -1.30641225093916      1.86112624551981
  H           1.63490431490981     -0.00780375067199      3.06650666431664
  Br          0.79937480441321     -0.83861286327530     -3.05748521024788
  Br          1.28254217223946      2.18098634247105     -3.78901976617276
  Br          3.66824958895271      0.42908102897767     -2.73147153304883
  H           5.44313775964504      2.73271699512925     -0.25969582282488
  H           4.95852742452939      3.66964245303936      1.16692833382873
  H           5.27899895475361      4.47772722921102     -0.37746869629205
