20
Coordinates from ORCA-job NEB E -48.553404858940
  C           0.79092961778214      0.47599974668039      0.00359525079879
  C          -0.45243104761400      0.81597205783584      0.67368190464977
  N           0.66317922905963      1.14128182720809     -1.31180344373354
  H           1.69051720908410      0.81175190895414      0.51705471395024
  C          -0.45822458492047      1.22864265944207      2.07498784171529
  C           0.82349401897846     -1.07305249076329     -0.44946889557038
  C          -0.40200095304777     -1.16909247070077     -1.24252004419168
  C          -1.65029971477150     -0.89479346275787     -0.51276033943178
  O          -1.61118963866101      0.42371454014183      0.11859850419831
  O           1.94973307071388     -1.37805788429660     -1.20785300143738
  H           0.77984851604857     -1.63974066473437      0.48817720126613
  H          -0.38954862283956     -1.61973675236955     -2.21828273707250
  H          -1.81698332358659     -1.61137027594212      0.29679793358244
  H          -2.51639860106381     -0.86039207731090     -1.17200008736343
  O           1.37964511114782      2.07070085596103     -1.59854812102321
  O          -0.25445058600868      0.67377246694056     -1.99241974619875
  Cl          0.02299838743926     -0.25506792618962      3.14562205653101
  Cl          0.75031993725247      2.46790583544975      2.42661958618427
  Cl         -2.04225786169830      1.73871058578379      2.62243019127601
  H           2.74311983670536     -1.34714847933242     -0.66190876812963
