20
Coordinates from ORCA-job NEB_reactant E -48.593027517270
  C           2.31990269536221     -0.71863871413085      0.21551520618586
  C           1.43904720649042     -1.31540474863020      1.04443016292797
  N           2.35244108357220     -0.80945252190731     -1.20002905885312
  H           3.11656738359895     -0.11588702303919      0.62266694644666
  C           1.53907062263929     -0.99903169692823      2.53130191049830
  C           2.67299695067526     -4.09886448638931      0.07144767210637
  C           1.79437816003850     -3.59710036814375     -0.79081538724211
  C           0.47608104397149     -3.01208199020061     -0.38027309718045
  O           0.53305337469633     -2.25085425470947      0.83136931545695
  O           3.87240361177760     -4.61470467018642     -0.23425143000733
  H           2.49153447794717     -4.12526580919553      1.13750102019395
  H           2.00793547171096     -3.58916406276060     -1.85031138264653
  H          -0.25660161394137     -3.79021850757040     -0.14357327583121
  H           0.08502281742020     -2.38638197050831     -1.19167861851551
  O           3.44659849680136     -0.82060691455442     -1.72402557772535
  O           1.29609782173736     -0.82026469517627     -1.80437431780896
  Cl          2.85822377769449     -1.99628131183502      3.21231341729927
  Cl          1.91039297781783      0.70715738410219      2.81634230060609
  Cl          0.03241980331990     -1.39884689348882      3.36463197555481
  H           4.03653383666987     -4.55720674474746     -1.18558778146568
