17
Coordinates from ORCA-job TS E -25.193773163970
  C          -0.49326785947403      0.65079278354563     -1.20656424107087
  C           0.83010331370224     -1.55748796763527      0.04017120882051
  C          -0.50931736037074     -1.55500264643744     -0.18951266767602
  C          -1.15751085626806     -0.48245444991235     -0.82777093531733
  C           0.16495818421369      1.23093032091726      0.87711052723827
  C           0.96211716036139      0.26412645545614      1.39614545286316
  H          -1.13524157240377     -2.29496573705708      0.29051399170580
  H          -2.24120184493400     -0.46671008623928     -0.82606259363526
  O          -1.11013300315353      1.74829510600360     -1.69954362905251
  H           1.27936213932713     -2.34466269460035      0.62403805089838
  H           0.55330790064589      0.65340604873961     -1.46577017460534
  H           1.50038698016666     -1.03660378812821     -0.61820347067974
  H          -0.86104219105293      1.28822247184144      1.20035226703703
  H           0.63726605808566     -0.40035360145934      2.17523143176020
  H           0.57233056338486      2.11397171905222      0.41859714548211
  I           3.07308584783360      0.50513261528227      1.37820014431943
  H          -2.06520346006407      1.68336345063114     -1.56693250808783
