19
Coordinates from ORCA-job NEB_product E -40.194096490530
  C           3.26421200324371     -0.11632151224612      1.56879268381882
  C           1.79877602699185      0.04216384045649      1.33938057263249
  Br          4.14091268668600     -0.23142742382259     -0.17525061494144
  H           3.66950163877751      0.76778192327529      2.06866443684347
  N           1.06270124706206      0.56038800874822      2.61015087741551
  C           3.51734760068669     -1.37158124189463      2.42905505603267
  C           2.83483072047405     -2.57523709408423      1.84072290134864
  C           1.87614547946761     -3.24399340456726      2.45114146531810
  O           1.13913761984320     -0.18277305948089      0.38831013256113
  C           5.02443999803397     -1.61677950660351      2.58252017238104
  H           3.11809642097542     -1.17025363556386      3.43070370662797
  H           3.18656547141309     -2.87288653066249      0.86190958645235
  H           1.51988359327160     -2.96828253104105      3.43067658952796
  H           1.41521113638144     -4.10516609491459      2.00131309425889
  O          -0.13149053989558      0.58158046250814      2.53730857308733
  O           1.75475052963131      0.88598212094208      3.54520237106019
  F           5.22978943301878     -2.51602601374331      3.59011102652901
  H           5.55267843529445     -0.69829898361831      2.86192446663893
  H           5.46151049864282     -2.04516932368737      1.67496290240696
