19
Coordinates from ORCA-job P E -29.544824264360
  C          -1.43575068012984      0.44922636994007     -2.28795772351911
  C          -0.10331738103688     -1.64738828744721     -1.15730855237161
  C          -1.48927843460524     -1.88583329641019     -1.66523791570880
  C          -2.13499890674653     -0.87102982137749     -2.21733254871002
  C          -0.83479966943846      0.80115411572904     -0.91846172359433
  C          -0.07136359788851     -0.37784328105832     -0.28349618820713
  H          -1.91801222695967     -2.87025441249618     -1.56783413729459
  H          -3.13652257873741     -0.95834053314066     -2.60721271117953
  H          -2.11156561071081      1.24375027542107     -2.60339148919951
  H           0.26601554481711     -2.49530187560939     -0.58078159294010
  H          -0.62423111563473      0.38615863440984     -3.01926474419722
  H           0.56968020593700     -1.49632647800281     -2.00753206866465
  H          -1.64459844123345      1.10210680327460     -0.25255790133484
  H          -0.51490157064074     -0.62237279217664      0.68657874115173
  H          -0.16807139326196      1.65719813791882     -1.03765236153804
  C           1.37524334211062      0.01740450168519     -0.00047479352240
  F           2.04725955050586     -0.98861796486507      0.61482797856631
  F           2.05509819898910      0.27396560341800     -1.14567522610894
  H           1.46243476466456      0.90944430078733      0.64049495837281
