19
Coordinates from ORCA-job R E -29.443334418060
  C          -1.36637795995320      0.13706620295535     -3.09449885119775
  C          -0.19488487024230     -2.28514853047175     -1.71932926761637
  C          -1.46686083232390     -1.90416428525440     -1.69321376663080
  C          -2.04515066868429     -0.81732433121646     -2.46750394369650
  C          -0.88372904108949      1.16117035721406     -0.00132346301767
  C          -0.00982275744626      0.33015669654907      0.53135299735787
  H          -2.16611748710726     -2.43959267843040     -1.06202682611500
  H          -3.12802095407017     -0.80613788492891     -2.50356782573054
  H          -1.86745287327572      0.91114198759217     -3.65070680365617
  H           0.16586232964265     -3.09824848685054     -1.11344200118142
  H          -0.29164114602859      0.18595326575725     -3.07186784750372
  H           0.53464312073274     -1.80208572883260     -2.34592546503570
  H          -1.91501503953183      1.16209802386851      0.30218671059934
  H          -0.27169874943124     -0.39151712806187      1.29010264181417
  H          -0.60190433158326      1.86375462017402     -0.76691418683524
  C           1.43913231300870      0.29679356340367      0.14519841138697
  F           1.92913408192099     -0.96732508280029      0.20449140548179
  F           1.64405307405408      0.72484145246415     -1.12418946598850
  H           2.07064179140834      0.91818796686897      0.80628754756525
