17
Coordinates from ORCA-job NEB E -37.890154312920
  C           0.77520768705843     -0.91286599483042     -0.28537404779066
  C           0.47465785583366     -1.78339891444592     -1.35484452962534
  N           0.32142498158424     -0.26039654904022      2.89743371328037
  H           1.17325181765587     -1.32232060710321      0.62780117228002
  F           0.70911899056168     -3.09775663516700     -1.00610029723262
  C           0.51338332707154      0.54296007581557     -0.44446021947373
  C          -0.99696307338443      0.76555488668672     -0.40930507634995
  C          -1.70079205180579      1.06223927223673     -1.48277780759058
  O           0.07984644912073     -1.53995314503782     -2.46066518300107
  C           1.13541141727489      1.29757629544355      0.61400648157672
  H           0.88290360971871      0.88267614413853     -1.42053548824618
  H          -1.45793837929014      0.63335520802337      0.55866205112584
  H          -1.25154535497714      1.16925720954138     -2.45555038199959
  H          -2.76742442825016      1.19819111196940     -1.42743248757362
  O           1.24666862245905     -0.71175897413554      3.44897691340849
  O          -0.72466577397493      0.22540068524712      3.09317260283630
  N           1.58745430334380      1.85123993065778      1.50699258437562
