17
Coordinates from ORCA-job NEB_product E -37.985175379590
  C           1.77528992282704      1.64801485436894     -0.45486614509814
  C           2.53073710908724      1.30714978880390     -1.72541910053514
  N           2.65978711003950      1.44882122962418      0.74683055025486
  H           0.92328742507346      0.96403691582882     -0.34560168390393
  F           3.02268895771150      0.05376976069760     -1.64591907938075
  C           1.26963981528748      3.10838948436250     -0.48190651092243
  C           0.24178820967267      3.36492086828429      0.59488992510591
  C          -0.92189564898446      3.93673621737148      0.35490468912498
  O           2.66673974387526      1.95596562214124     -2.69510691063049
  C           2.36770269639308      4.04503371879430     -0.30514298455791
  H           0.83534038786187      3.30062140353347     -1.47139351220477
  H           0.52543720141343      3.06416084657194      1.59390881111575
  H          -1.21408541231344      4.25243132336628     -0.63354859105075
  H          -1.62960860265987      4.11761175893396      1.14431203448368
  O           3.83430852270121      1.63076664535099      0.58891471116082
  O           2.10019468441729      1.15877243573245      1.76896666539605
  N           3.19654787759671      4.81029712623363     -0.13652286835772
