17
Coordinates from ORCA-job NEB_reactant E -37.981346550280
  C           1.89590744405780      0.63442040218465      0.09136725092657
  C           1.32517393741161      0.77284167136122     -1.12357574226441
  N           1.54769755578638      1.27174857801737      1.29921689111252
  H           2.72421861505552     -0.05258095340565      0.17949451820297
  F           1.77561230355724     -0.06826220237532     -2.06248647579084
  C           1.44621515232172      4.43641402887676      0.22492794366779
  C           1.27297276351868      3.70633146480914     -0.87454133540913
  C           0.08271084123260      2.82777545908454     -1.09793656564213
  O           0.44554690318263      1.56935143826786     -1.67155581869874
  C           2.55904190101326      5.28521808004950      0.39590282976888
  H           0.73839155967059      4.41490186062051      1.04384636161562
  H           2.00077453590823      3.72802793739742     -1.67595190962666
  H          -0.57557914792065      3.26858191143632     -1.85409179580989
  H          -0.47267606082776      2.67885180070071     -0.16536146699018
  O           2.39574393384722      1.30872401270693      2.16338285521234
  O           0.41931192802968      1.72097872841952      1.42359574119800
  N           3.45373583415524      5.98737578184848      0.53336671852730
