19
Coordinates from ORCA-job NEB_product E -29.430478930340
  C           2.94282649331506     -0.21501422472014      0.90754527127510
  C           1.47364166941560      0.13285076231239      1.20345109113197
  N           3.13435861848581     -0.72038447407048     -0.43487151743798
  H           3.56970915893695      0.67045800223467      1.05420634679156
  C           1.24910033376738      1.17471955164188      2.26301046482523
  C           3.36868993649796     -1.28013281219896      1.94452681915845
  C           2.71781775957541     -2.60087313043874      1.71647107224146
  C           1.86706654104713     -3.14798580783109      2.56454988306223
  O           0.58214324324424     -0.39563266269806      0.58977842127053
  Cl          5.14856967777098     -1.49146099019441      1.84416042015952
  H           3.16803787343054     -0.91631229795215      2.95549070519379
  H           2.99570395783778     -3.09687206481361      0.79853010024505
  H           1.58979390770445     -2.66423154818464      3.48722101795031
  H           1.40733682999363     -4.10026022498411      2.36732396670159
  H           2.36471025931983     -1.34227718924303     -0.66792817515128
  H           3.12779103095767      0.03859653214822     -1.10614457896685
  H           1.95269452288754      1.06435839215410      3.08314080270724
  H           0.22681488240213      1.12442284429976      2.62877807473942
  H           1.40709330340991      2.15483134253840      1.81355981410263
