18
Coordinates from ORCA-job NEB E -30.199204357300
  C           0.23289950312460      0.93832113311435      0.27972250494090
  C           0.39861577579235      0.33383669084428      1.52055039813646
  O           1.23114726287721      0.86391323094721     -0.64178894053864
  H          -0.35903970775467      1.85125774191731      0.26444325190528
  F          -0.55200201809279      0.80092949689936      2.43057829636841
  C          -1.10100069428229     -0.53995635518085     -0.45167875937507
  C          -1.20051392432581     -1.50753889285813      0.52212108205791
  C          -0.01512177302083     -2.11755792134175      0.97453312844349
  O           0.84461832566534     -0.80712502017801      1.76203918160281
  H          -1.97225985775649      0.04315482582945     -0.70926753272474
  H          -0.39441590060884     -0.70269846930203     -1.25150512206001
  H          -2.04506981495358     -1.48231705045678      1.19835201759900
  H           0.75025578604809     -2.33514127417841      0.24074787288582
  H          -0.07133838566452     -2.82916153880101      1.78536235371038
  C           1.08062655086346      1.71096982347282     -1.75883794907016
  H           1.98429413184976      1.59348527561087     -2.35326052819941
  H           0.97846217937756      2.75674487914612     -1.45172015995663
  H           0.20984256086146      1.42888342451519     -2.36039109572578
