18
Coordinates from ORCA-job NEB_product E -30.255701659360
  C           0.57636485445955     -0.90221253890664     -0.88501399311235
  C           1.65189257340517     -1.02995149326233      0.16544345579355
  O           1.09598142533298     -0.51896599435984     -2.13027482270052
  H          -0.16930075185863     -0.17101102829337     -0.52423804686066
  F           1.09911496981632     -0.98298530976578      1.41736220180534
  C          -0.09207514837963     -2.28323812624389     -1.06580730606625
  C          -0.84887245018291     -2.71681613868902      0.14872345835542
  C          -0.60390308639186     -3.82855944644569      0.81520902549699
  O           2.81636325301759     -1.16492569631241      0.05528671120519
  H          -0.76965996876762     -2.18540923073845     -1.91769123604431
  H           0.67902848952101     -3.00905841279552     -1.32743453854548
  H          -1.63923812400238     -2.04954189252550      0.46637215619425
  H           0.18079258234673     -4.50555112714671      0.51990955813431
  H          -1.17708878963708     -4.11011468855334      1.68100549723661
  C           1.60202353946888      0.79685679614786     -2.17619198499548
  H           1.88706956194863      0.96947017105680     -3.21141096254691
  H           2.47925008392202      0.91847919346843     -1.53410132946273
  H           0.83525698598124      1.52373496336541     -1.88134784388696
