18
Coordinates from ORCA-job NEB_reactant E -30.230320303210
  C           1.11161136999127      0.07410533432705     -0.25620522983260
  C           1.04388349477000     -1.03040235793789      0.48201020901220
  O           1.41172637152351      0.04872992794761     -1.58486461913056
  H           0.92599993397574      1.03472080948191      0.20698366159374
  F           0.63519728186968     -0.89223625723962      1.78157451320735
  C          -1.35888093640497     -4.18862469900011     -1.11620587952430
  C          -0.82318216988750     -3.17821885807138     -0.45941683914611
  C           0.38652805411850     -3.29161322024506      0.41643024377172
  O           1.35768225522234     -2.27806810262217      0.12826709338495
  H          -2.23868648982337     -4.06804898908944     -1.72421167013528
  H          -0.94446121534829     -5.18190524234325     -1.06399159185359
  H          -1.24478465680126     -2.18352490948385     -0.52373505796520
  H           0.90873485295193     -4.23529826646406      0.25153765025212
  H           0.09121284314738     -3.22368389745314      1.47327840446480
  C           1.89095001885329      1.26772044783547     -2.10386842225699
  H           1.99923210040118      1.11915127788134     -3.17641940314514
  H           2.86302527645343      1.53001387098601     -1.67345312050779
  H           1.18521161498716      2.08488313149059     -1.91780994218932
