20
Coordinates from ORCA-job NEB E -37.090040349720
  C           0.34888103863999     -0.76563178654274     -0.61440025560464
  C          -0.91409737082883     -0.14827483402436     -0.59530298241085
  C           0.50483946065735     -2.05274445284005      0.16454243826062
  H           0.84784586917237     -0.81065725823439     -1.57807280552382
  C          -1.25903764110594      0.77243229103687     -1.75109690973561
  C           1.37705935424209      0.50859824548498      0.42858805881686
  C           0.48781793814883      1.32765325803447      1.13533523542344
  C          -0.60074069330216      0.67117431502397      1.76462956674871
  O          -1.50813994134412      0.06339264165840      0.53170794937170
  Br          2.56132306906230      1.40346861190351     -0.79302494941828
  H           1.92870951802484     -0.25374895617576      0.96240167455660
  H           0.30401155982180      2.32438699631627      0.75416662063910
  H          -1.33081865537962      1.29899423505321      2.25988926588491
  H          -0.36819190664653     -0.22306023981486      2.33557494548404
  F           1.82456404041749     -2.38399747696260      0.33757714567853
  H           0.05398045422709     -2.87528383307210     -0.40351883268833
  H           0.05033457925256     -2.00420684478397      1.15754622811571
  F          -2.54910446784314      1.20727252891792     -1.66656249557783
  H          -1.14087275833051      0.27169772541575     -2.71679144743530
  H          -0.61836344688585      1.66853483360548     -1.71318845058555
