20
Coordinates from ORCA-job NEB_reactant E -37.132650047560
  C           1.79122507450773      0.38678608931803      0.04859668012993
  C           1.25518273417525      1.58355602335472      0.27656713511855
  C           2.16690514557656     -0.61405985594334      1.09456819015680
  H           1.97855438281886      0.10665230670928     -0.97586710544445
  C           0.83822276207663      2.50489186860696     -0.84378635399265
  C           4.23020110453335      2.90500880158550      1.45485167487429
  C           3.02635452117426      3.30143659410590      1.82787243792550
  C           2.02054553367378      2.35349090979678      2.41016191862451
  O           0.94537679480847      2.12968929708261      1.49707278753319
  Br          5.48308713330678      4.07365568506329      0.66384260144455
  H           4.60004906937079      1.89908826860647      1.57776523440790
  H           2.69412470807467      4.31776951563724      1.66959386827727
  H           1.53722505780164      2.79692080331217      3.28433865428301
  H           2.50984697422159      1.42152984801933      2.70166449402171
  F           3.47009102448004     -0.42107628313209      1.52975649060615
  H           2.13083807082994     -1.62966178963395      0.69185181459240
  H           1.52959860224880     -0.53756788538790      1.98145384698788
  F           0.86102543756129      1.88393713065615     -2.06006963415988
  H           1.51573576192041      3.36595453235874     -0.90690900907830
  H          -0.18398989316085      2.85779813988412     -0.66732572630838
