17
Coordinates from ORCA-job NEB E -37.887905159070
  C           1.05446397904450     -0.23360459498454     -0.34945442968640
  C           0.36373578939369      0.29148308103116     -1.46026678161578
  C           0.77539445041681     -1.68277527764698     -0.00461602332710
  H           2.12768682140700     -0.06199654439031     -0.31638073880827
  H           0.84253073437812      1.08150620054053     -2.04311021850803
  C           0.29599084328548      0.82718240781516      1.01102593497504
  C          -1.07924263620400      0.59412245294204      0.89165993234483
  C          -1.69360447825472      0.95216698223318     -0.34518934221940
  O          -0.92302193017823      0.17180548354066     -1.52646538982901
  I           1.21850358802306      0.41387207973510      2.88684685106110
  H           0.68039198783581      1.77599516018201      0.65669872506565
  H          -1.54273662265530     -0.17205979188599      1.49356342101321
  H          -1.54663987923259      1.97840661489516     -0.67490721118309
  H          -2.71894712169036      0.62396393092465     -0.46921179237727
  F           1.51712533868531     -2.12170179232498      1.02063420367468
  F          -0.49046438819123     -1.98184448755566      0.28169920396014
  F           1.11883352393668     -2.45652190505119     -1.05252634454029
