17
Coordinates from ORCA-job NEB_reactant E -37.930338886590
  C           1.81470206031310      0.06213733081255     -0.04295155307657
  C           1.17023320872054      1.15704451153189      0.36224641125238
  C           1.94814139494862     -1.13779935871463      0.83404358488385
  H           2.26983924177455     -0.00483940764725     -1.01299409030921
  H           1.08514398784507      2.01449297088817     -0.29856827347805
  C          -0.13151344487192      3.53575626544259      4.08495443774575
  C          -0.35897555036892      2.47082667109272      3.34203243416942
  C          -0.11097887759790      2.43673289221246      1.86533051830136
  O           0.61940445204137      1.25657243985761      1.57301959679304
  I          -0.51586653913810      3.59944806390721      6.14537587583681
  H           0.24683370399005      4.46569773173162      3.69382133866498
  H          -0.72745504963577      1.54621051102675      3.76008186293068
  H           0.44204120940639      3.32629060504726      1.53697527308620
  H          -1.07585702736560      2.40537223401381      1.33532084732895
  F           2.64986120287288     -0.89820207757429      1.95776379437192
  F           0.76353871620815     -1.63206773690216      1.23865457827113
  F           2.57910731085748     -2.14107364672630      0.20449336322736
