18
Coordinates from ORCA-job NEB E -40.429450794360
  C           0.54454383521988      1.12187002153904     -0.55819379789534
  C          -0.69699537694820      1.63330866896151     -0.09426798066556
  I           0.70909166079971      0.92849032725253     -2.67672861487867
  H           1.43631737206082      1.59855446360003     -0.16187860442142
  C          -0.69138330229484      2.34061529927787      1.13081826557504
  C           0.47342596827773     -0.55158390600447      0.20584871465547
  C          -0.75472534493856     -1.08759700986831     -0.24308881362424
  C          -1.95734504264800     -0.37516569447228      0.09604874457976
  O          -1.79169881991871      1.04218776475111     -0.51957509944376
  C           1.72232838503523     -1.36958721401963     -0.02667016511139
  H           0.48499227636401     -0.21048698816701      1.24465554800652
  H          -0.76349838400086     -1.68985324864199     -1.14065597804785
  H          -2.10680863954600     -0.18250252741892      1.15929293816208
  H          -2.85917095680989     -0.75457842262179     -0.37319331218374
  N          -0.68256113669234      2.94589116780242      2.10725311106913
  Br          1.78399663715222     -2.71146418070071      1.43098629866728
  Br          1.78560971639972     -2.36128022547860     -1.69184085005324
  Br          3.36388115248809     -0.31681829579079      0.11118959560992
