18
Coordinates from ORCA-job NEB_reactant E -40.467034515360
  C           1.92710702631937     -0.39232860172144      0.04625317630199
  C           1.43708363205258     -0.37149196215193      1.29311791342131
  I           2.14256343953368     -1.95483443719190     -1.33834639584383
  H           2.26758817187785      0.54274517639835     -0.36664310953081
  C           1.43727341758376      0.92978322750495      1.89267096034947
  C           2.69327994890106     -4.35643493598490      1.32056011073947
  C           2.33360272471019     -3.23852996092587      1.93087952097653
  C           0.94979133216460     -2.66904069286346      1.86025363734111
  O           0.92051779162357     -1.28697776670332      2.14113526685141
  C           4.03069372807020     -4.98230068800044      1.36440490199146
  H           1.98378975080118     -4.90942248853937      0.71628198923128
  H           3.02685838337183     -2.67243839681284      2.53958349439318
  H           0.34464548307203     -3.10527668082510      2.66453686260169
  H           0.46476599155306     -2.90093745223660      0.90608114869407
  N           1.44297294060413      1.97523797300421      2.35680544252956
  Br          3.87767326929489     -6.77699717134093      2.17855438816554
  Br          4.70315621564697     -5.21087219264805     -0.47738549590431
  Br          5.36263675281904     -3.98728294896135      2.36335618769088
