23
Coordinates from ORCA-job NEB_reactant E -31.584051845670
  C           1.44089573549399      0.21423745222202      0.10946233837659
  C           1.39288043618003      0.52190325807338     -1.18389894523165
  I           2.28435033246830      1.21597491936659      1.77289946773033
  H           0.98452960102776     -0.70287934635135      0.43419350484942
  C           0.70196236770014     -0.43070778174525     -2.12913338150612
  C           4.08770643882051      4.15895510034096     -2.54116993008432
  C           2.88969690586290      3.62907286231846     -2.36523861674810
  C           2.55402214446016      2.64638154887558     -1.28676408336785
  O           1.85637963903343      1.56982545013339     -1.89356631466233
  C           4.43164908475013      5.15269303052938     -3.60286883329672
  H           4.90434906192169      3.87667592749901     -1.88841616900580
  H           2.06346019357339      3.89085886825796     -3.01122588047293
  H           1.91180723685401      3.13090490908860     -0.53809588651948
  H           3.46813470384065      2.29020899228132     -0.79970710243228
  H           1.40974517832974     -0.75391858090844     -2.88985258879331
  H          -0.11154809061013      0.09012439309067     -2.63021110896899
  H           0.30945209646974     -1.29768990527111     -1.60929197467006
  C           5.55207188166015      4.62959301350907     -4.50135356303256
  H           4.76208902416879      6.08065343075929     -3.12718299011390
  H           3.54839511745101      5.37492404027867     -4.20382064203270
  H           6.44483469165678      4.42097632641077     -3.91611639008319
  H           5.80261774735578      5.36413363459150     -5.26290555460009
  H           5.24171847153105      3.71119845664952     -4.99423535533398
