23
Coordinates from ORCA-job NEB_product E -36.851475300050
  C           3.11944505535971     -0.73195546464670      0.85091653635151
  C           1.61294595068333     -0.57014090054811      1.10341039160733
  N           3.46023396330617     -0.36448113361207     -0.51100479914650
  H           3.69969184875110     -0.09785579287896      1.52971035098452
  O           1.15516089396392     -0.37247897131504      2.34627220630751
  C           3.49949282317327     -2.21643104852564      1.09934160385707
  C           2.69878896993169     -3.13661047698775      0.22348709466399
  C           1.73448687623266     -3.91892310719119      0.66754345020222
  O           0.82776817382674     -0.61929792094674      0.19490526112965
  C           4.99723428886962     -2.38754732609707      0.84159203937152
  H           3.30224535562471     -2.46960292368307      2.14629454204072
  H           2.96447905572188     -3.12747256429933     -0.82369796716180
  H           1.45531811722189     -3.94931473138109      1.70846466170885
  H           1.17886956656965     -4.56249641293964      0.00868046978223
  H           2.78914173877678     -0.79740143728759     -1.14039417047143
  H           3.37026162213501      0.63821378729227     -0.63684304167391
  C           1.99917526583809     -0.19745694052060      3.46706354085617
  H           1.32579714885095     -0.06756275211235      4.31306278556604
  H           2.62007160439564      0.69614070396491      3.36443351034492
  H           2.63386454515148     -1.06762469848159      3.64388267300922
  F           5.40260247758301     -3.63989257816533      1.23138687193527
  H           5.58645526003911     -1.67194761535753      1.42447509915955
  H           5.22656939799359     -2.28195969427980     -0.22118311042465
