17
Coordinates from ORCA-job NEB E -26.146575821310
  C           0.90679823338144      0.17944391936740     -1.02930316089887
  C          -0.47093965026538     -0.03326094482633     -0.98079133072333
  H           1.54450489921920     -0.66409205136696     -1.25091699482301
  H           1.26503742808054      1.11323612724704     -1.44099072404834
  C          -1.43568056675209      1.11368426091578     -1.07872174770813
  C           1.29139653457039      0.24426488969252      0.83854542469033
  C           0.78730270495206     -0.95818158936389      1.32739716900480
  C          -0.60729170281562     -1.20566852959619      1.12477544421834
  O          -0.89795266987759     -1.14975289415961     -0.43491086448057
  F           2.63259762804029      0.41627061712604      0.87539779559566
  H           0.80341237330421      1.18886661736590      1.07087152943434
  H           1.46308511699407     -1.79983144877613      1.35367136141528
  H          -1.27919217547285     -0.43430955987455      1.50038927159290
  H          -0.94608494827941     -2.19882833517591      1.39563244529957
  H          -1.64324826615480      1.50714203516391     -0.07938093005377
  H          -2.37855690993180      0.76877642102491     -1.49679281665901
  H          -1.03518802899267      1.91224046523608     -1.69487187185617
