17
Coordinates from ORCA-job NEB_product E -26.191052460150
  C           3.07594733858335      1.29242082752402      1.27934708654290
  C           1.61022919708281      1.11136303240679      0.93365649619911
  H           3.66873398136136      0.52906268067156      0.77229624531671
  H           3.42839428719194      2.28294745216233      0.98993994100305
  C           0.80808397651890      2.38477237195947      0.92186897161397
  C           3.27365301946815      1.12498621218329      2.79652919601140
  C           2.99548755172635     -0.27918741623231      3.23341061294218
  C           1.89571500575781     -0.64654295395236      3.86076875894102
  O           1.13609350238130      0.03058161334962      0.70079403547414
  F           4.58788742855389      1.45221359497516      3.08810763424014
  H           2.65780973183563      1.84576756295129      3.35046199391704
  H           3.76552655302375     -0.99122276905193      2.97402249814872
  H           1.12346736380093      0.05963913336546      4.11886844072675
  H           1.71500495796549     -1.67175826192637      4.13048966072688
  H           1.02177700009903      2.97854419991587      1.80716764065906
  H          -0.25416170867456      2.16306442127655      0.86701123901835
  H           1.09215081332388      2.96934829842158      0.04815954851857
