17
Coordinates from ORCA-job NEB_reactant E -26.178263456970
  C           2.61050305992908      0.78062822322003      0.62781851840608
  C           1.56381002440407      1.22371613198706      1.31031649090473
  H           3.27272996098038      0.01345879537875      0.98388540780551
  H           2.84158704086725      1.19899112694795     -0.33325987782242
  C           0.65294577373673      2.31176689373738      0.82534615674523
  C           3.62638073755718      1.21881951766358      3.82829240812785
  C           3.13886491167427     -0.00112149732036      3.72296182757815
  C           1.80357701151686     -0.32032522970980      3.11827236331386
  O           1.14149893248290      0.77163122998423      2.53274557471270
  F           4.82361570025029      1.45185776785467      4.39106348447909
  H           3.15091829104473      2.12702445962017      3.49098463065643
  H           3.69777041936429     -0.84589479482542      4.09726916547392
  H           1.12967085648549     -0.66787410748091      3.91095791877196
  H           1.91755532841113     -1.13711283968563      2.39054727328170
  H           0.61120920088114      3.11156952182435      1.56211027942639
  H          -0.35590387476441      1.92140726172253      0.70457643697855
  H           1.00116662517862      2.70985753908141     -0.12158805883972
