23
Coordinates from ORCA-job NEB E -45.154675619210
  C           0.51034045566457     -0.68406186696015     -0.53633279513884
  C          -0.68033577058185     -0.42275654435711     -1.24773717654930
  C           0.56197832575400     -1.92089710118452      0.32464588322288
  H           1.43840907620991     -0.60401127901800     -1.09603593330258
  C          -0.62355315673981      0.34084599586870     -2.53790283345014
  C           0.48549666568019      0.78708219993240      0.69489856805145
  C          -0.76162708548909      0.66264800490153      1.31710151002287
  C          -1.92854725677368      0.71685079602046      0.49842479692075
  O          -1.80523247255399     -0.45722073201434     -0.59257997124932
  C           1.73341293693233      0.73935278285199      1.54734892022608
  H           0.57352425878002      1.55538489187057     -0.07128149502142
  H          -0.82252231917205      0.14140811713762      2.26028742880431
  H          -2.01380881618293      1.58135432175789     -0.15779918741207
  H          -2.86422035985198      0.47983482270908      0.98997845315450
  F           1.72109184456557     -2.01733752456020      1.00701622388764
  F          -0.41125519696452     -2.05829708687173      1.22138939482942
  F           0.51834354884315     -3.02185521144186     -0.45256945842230
  H          -0.59850193955096      1.41447704850175     -2.32934374577307
  H          -1.52026460679807      0.13858255163598     -3.11790222823125
  H           0.25410284972849      0.07626056759724     -3.11827163361832
  F           2.03493432944010      2.02306979618510      1.94370147294458
  H           2.60641780775149      0.37855896526096      0.99528123375333
  H           1.59181688130911      0.15072648417664      2.45768257235079
