19
Coordinates from ORCA-job NEB E -40.293225567170
  C          -0.82847594983627      0.36107009037555     -1.16280411085358
  C          -1.40103850750740     -0.89314882624338     -0.86748933881923
  N           0.17793140011089      0.43424354878402     -2.07420258821196
  H          -1.48173093301862      1.22409939270804     -1.11750900061176
  F          -2.61492963091192     -0.79744018429863     -0.21759016573141
  C           0.01912558026129      0.36831352716637      0.81212876680535
  C           0.77765687623547     -0.80355904546251      0.79995819668995
  C           0.14167679188146     -2.03801749214745      0.82634047653195
  O          -0.78702860423184     -1.96086476292374     -0.77278640659557
  C           0.69343235823005      1.68067279733635      0.97097265147938
  H          -0.94013602853213      0.34527752498535      1.32163202011689
  H           1.80297830173958     -0.75520496436128      0.45751760159374
  H          -0.75362574451274     -2.16242381735036      1.41772115181773
  H           0.72438103877270     -2.93301479734404      0.68444617041155
  H           0.59571218440068      1.32556819835304     -2.27835042378147
  H           0.77714821541122     -0.37208010006000     -2.15919531282878
  Br          1.27341869909317      1.88462542724943      2.87991511292874
  Br          2.30233280007145      1.89110510441617     -0.11148503451373
  Br         -0.47882884765702      3.20077837881708      0.59078023357221
