19
Coordinates from ORCA-job NEB_reactant E -40.313623276670
  C           1.44959639821301     -0.03392489415933      0.06538472154353
  C           1.72913550360589      0.45264323245057      1.27209858166130
  N           1.32600384324899     -1.38217143070643     -0.22071087890275
  H           1.35863612986254      0.64900078838419     -0.76376991242535
  F           1.96180805874155      1.79143743426716      1.41789630543660
  C           3.44391235616365      0.82606390306713      5.33541653634180
  C           3.12875606908939      0.94702733987725      4.05582550464614
  C           3.04008546708233     -0.22347311872005      3.12501482838084
  O           1.79919676221833     -0.25975678129245      2.42204355951583
  C           3.57298494143369      1.92817333163986      6.31115556696298
  H           3.65494730167178     -0.14618674644836      5.76614255082691
  H           2.90546912524426      1.90913955593031      3.61472140317498
  H           3.09173580692327     -1.16484300680716      3.67812606340016
  H           3.87406035393176     -0.17910426573687      2.41070655521326
  H           0.64994463568496     -1.60150289542451     -0.93621270591266
  H           1.23032887469856     -1.96161900389028      0.60132057001497
  Br          2.36054359918787      1.59854320866994      7.83322079049369
  Br          5.41932496289555      1.95154733117726      7.01981304949835
  Br          3.18602981010261      3.69470601772177      5.61450691012943
