19
Coordinates from ORCA-job NEB_product E -40.324739733380
  C           2.11228150305711      1.04485514089680      2.17859910198600
  C           0.62953246058635      1.36334200316523      2.22592129969710
  N           2.23621411580165     -0.00743268681623      1.18003198812922
  H           2.65420331225270      1.97028723244934      1.90111496299246
  F           0.29316291815586      2.15770354653936      1.17906270920281
  C           2.58374495870649      0.53629053799717      3.56210430648455
  C           3.65677772320337     -0.51088604562929      3.44740934006748
  C           3.51559309903490     -1.74200528370836      3.89910534518915
  O          -0.19806616660280      0.97896267925597      2.96835556087118
  C           3.07938133431176      1.68164654520954      4.43463753868896
  H           1.71388188592156      0.09005968998871      4.06254337876559
  H           4.58106651167123     -0.19297246213430      2.98294664391226
  H           2.60582477716473     -2.07667855977116      4.36848950107412
  H           4.30652723368330     -2.46573457263121      3.81221152084583
  H           1.78390192546767      0.26298196943204      0.31385097554262
  H           3.20869511273005     -0.20912715891872      0.98073545909213
  Br          3.52606724769096      1.02020539916740      6.21183551086967
  Br          4.68150965076976      2.52063744448368      3.69687372347453
  Br          1.73150039639336      3.09316458102402      4.63627113311432
