18
Coordinates from ORCA-job NEB_reactant E -33.996110345000
  C           1.43483824686021      0.14441596509298      0.00551080813520
  C           1.26413940795507      1.03327414936398     -0.98669439764449
  C           1.35186060861857      0.36085990378023      1.38747683975227
  H           1.66730751855983     -0.87632593554899     -0.26608041178721
  C           1.40233352717846      0.62192534939625     -2.43381879198701
  C           2.53557530880655      4.62625011668664      1.10305733600744
  C           2.17339225048758      3.38010182366562      0.87138179528649
  C           0.83188311046015      3.02319737357406      0.30076872113396
  O           0.94942286622259      2.34198840278392     -0.94100702496376
  I           4.40203685275944      5.14598831641356      1.90614265539981
  H           1.90019083180695      5.47534401075867      0.91446201852961
  H           2.83702079265648      2.55311615240448      1.07697083088986
  H           0.26129607490873      3.92558404740732      0.06610763793987
  H           0.26810674504472      2.41604969809207      1.01821808804446
  N           1.31861291826042      0.48268458128318      2.52960611942130
  F           1.63224216855787     -0.71553249473590     -2.56729683173320
  H           2.24432951654618      1.14992648961760     -2.89670295667808
  H           0.48211125431018      0.85725204996432     -2.98050243574653
