18
Coordinates from ORCA-job NEB_product E -33.994519057360
  C           2.49908189952024      1.74623540097431     -0.22579272985761
  C           1.45383345232824      1.53048335363715     -1.33891965754032
  C           2.60148565552057      0.59605513411443      0.64057479333482
  H           3.46603811653141      1.87313841137147     -0.73398235533786
  C           1.41060574610564      0.10395830456582     -1.85231220025238
  C           2.15336104761669      3.01811128182606      0.55976198738559
  C           0.93444568066804      2.85623783618383      1.39383792355624
  C          -0.09374003963296      3.68320829908847      1.33536030877770
  O           0.77109246750255      2.41770801810308     -1.75526372249070
  I           3.84855809406932      3.56813690941027      1.83533910208063
  H           2.03984184947108      3.84854225800576     -0.13800556983004
  H           0.93817926976977      2.00997311361701      2.06908980870934
  H          -0.10473735920316      4.52907827339635      0.66802399825108
  H          -0.96789921793696      3.53891823956949      1.94530068246348
  N           2.67340207949499     -0.30123297000957      1.34380584783606
  F           0.62452428402538      0.00630318548144     -2.95898316714494
  H           0.98603902204107     -0.55277856884095     -1.08162949446393
  H           2.41298795210807     -0.25047648049443     -2.12110555547715
