17
Coordinates from ORCA-job NEB E -37.298908162170
  C           0.30238660121397     -0.79957634182215     -0.73160740109495
  C          -0.93918628016196     -0.03806442296329     -0.83278953011303
  O           0.19244139887440     -2.02406191505887     -0.06759740047934
  H           0.72081823125567     -0.99400833961522     -1.72421518825835
  N          -1.12040882138741      0.78626326718529     -1.96529835962666
  C           1.29659446111017      0.23571550218671      0.10333251993957
  C           0.64710928566270      0.27100539285449      1.38805197427862
  C          -0.81783160169711      0.36399092180460      1.48173123224097
  O          -1.54311910533796      0.40952936144822      0.27911247519370
  Cl          2.97750288517491     -0.34572253941997      0.19892695591176
  H           1.31689263743227      1.13434416506943     -0.51365915103244
  H           1.18583978799919     -0.00189728493845      2.27932451591849
  H          -1.14458468898967      1.25380256220698      2.03027651429305
  H          -1.17842452903861     -0.49789292457680      2.07006815847464
  H           0.47722971418774     -1.97089960774864      0.85224242420794
  O          -1.94226280870954      1.68268728568158     -1.90043248637817
  O          -0.43099716758878      0.53478491770607     -2.94746725347583
