17
Coordinates from ORCA-job NEB_product E -37.336797830370
  C           2.92230777094612      0.68977846181256      0.22504236250000
  C           1.50363926822346      1.10249270962289     -0.06882809712506
  O           2.90692219403402     -0.65362466486541      0.58421551542501
  H           3.53271303057542      0.85927568036554     -0.67873951815906
  N           1.41947399415950      2.45899942796666     -0.81860736876614
  C           3.46383560561781      1.60788416657530      1.35451325629294
  C           2.56454708390391      1.61235077947171      2.54340469434521
  C           2.13920300320807      2.71995826192628      3.12289764930630
  O           0.48480498494146      0.57106180834917      0.19455211356075
  Cl          5.07641917587105      0.94974170352528      1.83634302509128
  H           3.64651512647665      2.61274244009385      0.96872488210828
  H           2.27575756361477      0.63583541350449      2.90557214352964
  H           2.42624422374152      3.69614127850266      2.76688761396745
  H           1.48586133286238      2.69283729296354      3.97670419385846
  H           3.74924747691516     -0.86120136171149      1.01723523088655
  O           0.31302362671312      2.83334844004996     -1.08446362197995
  O           2.46128453819559      3.02607816184702     -1.05265407484166
