19
Coordinates from ORCA-job NEB_reactant E -34.307170950980
  C           1.77138299476615      0.08297104148169      0.12036617298266
  C           1.48367497015983      0.70479774326533     -1.02229695906780
  O           2.07433642374989      0.71360931235643      1.31823256743890
  H           1.73485370934641     -0.99500520885046      0.11885183386284
  O           1.14478794682674     -0.05077041813069     -2.10504816215093
  C           4.27120726468927      4.00690950169679     -0.67476850233865
  C           3.50708586001279      2.94354845924330     -0.49632632387940
  C           2.01097218564978      2.97705282279519     -0.44856345051784
  O           1.42460145360156      2.03266283767961     -1.33034999545081
  C           5.76622731023355      3.98346229873854     -0.69854605943694
  H           3.84761656080180      4.99335246990136     -0.80457713011296
  H           3.95227104324133      1.96671028591271     -0.37231259596639
  H           1.63111945245883      3.94477333157132     -0.78574790985241
  H           1.67317721071861      2.78870760801861      0.57642064393974
  H           2.59829001657728      0.11156584829163      1.85504635469047
  H           0.94441646704179      0.56120573735392     -2.82510113189641
  F           6.26963361702897      2.72356310169567     -0.50010869917481
  H           6.17998118207347      4.61782063790398      0.09595374212782
  H           6.14776433102197      4.32766258907506     -1.66852439519707
