22
Coordinates from ORCA-job NEB_reactant E -48.238621817560
  C           2.44063827743237     -0.82834195239091     -0.12893579092514
  C           1.66539269439863     -1.21085726322081      0.90265541935132
  N           2.19375738714949     -0.97871068949787     -1.52098784576268
  H           3.39745288373149     -0.37406368861718      0.08463757473415
  C           2.16803457490496     -0.87627164825935      2.30508520557647
  C           2.05584459248840     -4.07918938754105     -0.23391914450554
  C           0.89226929937659     -3.66783879784568     -0.70955800953672
  C          -0.00617691306011     -2.63367560122231     -0.10340204521535
  O           0.54992125122523     -1.92061492576636      0.99790891904831
  C           2.90718804716967     -5.11076203482494     -0.90108477272856
  H           2.48520712254774     -3.69296616697593      0.68039985238047
  H           0.50403232541791     -4.08961278607133     -1.62561968918243
  H          -0.89535786503895     -3.11282268824633      0.31883459113989
  H          -0.32194260858677     -1.93410428854743     -0.88895194434863
  O           3.15724845826099     -1.20429573575544     -2.21950087909882
  O           1.05700037103014     -0.83270098598242     -1.92850992699471
  F           3.11122063974356     -1.77573309041453      2.67760533733808
  F           2.75836478456204      0.33276460169234      2.34664460709316
  H           1.35426884573372     -0.90573539600861      3.04386157531993
  F           2.26171964009918     -5.71046759993407     -1.94928095342614
  H           3.18058593629274     -5.90501706642009     -0.19628812334962
  H           3.81933025512095     -4.65378280814969     -1.30629395690745
