19
Coordinates from ORCA-job NEB_reactant E -33.183401854460
  C           2.39030114767095     -0.65424242503361      0.01313809072240
  C           1.55045509439558     -1.65876511311456     -0.26974644718463
  Br          3.39466491563985      0.43833948742788     -1.16893775155045
  H           2.57562362372026     -0.40411771611280      1.04284554419357
  N           0.96801893708814     -2.37008593263826      0.77548114976407
  C           3.78526989623101     -3.22442500018196     -1.79450359153255
  C           3.22520085787629     -2.44207654550045     -2.70083204102302
  C           1.81047597475987     -1.95065477825782     -2.66096894446381
  O           1.12892039025655     -2.18894740549803     -1.44339848746233
  C           5.20010092396228     -3.70185237789635     -1.85501428430433
  H           3.24457819244929     -3.56993474911365     -0.92428104004934
  H           3.78809115525784     -2.10760388921609     -3.56016308144684
  H           1.21582114792648     -2.49891880843442     -3.40157532551442
  H           1.77438559983243     -0.88867166333426     -2.92906438121797
  H           0.16157630177702     -2.89963340666764      0.47831405010539
  H           0.82374123015582     -1.85792172137217      1.63075398845139
  F           5.80900446374515     -3.37539996968651     -3.03909757411972
  H           5.24636307949172     -4.79443264697859     -1.76524812187846
  H           5.79940706776347     -3.24835533839072     -1.05470175148893
