25
Coordinates from ORCA-job NEB_reactant E -31.709085007210
  C           2.60458441764468      0.04309915780970      0.26179834747263
  C           2.08476584907526      1.26382615264961      0.18792815618630
  C           2.20704601642923     -1.01900818871643      1.24056798165566
  H           3.36614247786468     -0.23807148179551     -0.45157435898578
  C           2.47013598795695      2.26691032122788     -0.86192996696740
  C           2.00844651846049      4.50967498080266      2.58169095136145
  C           2.42910580854632      3.26677539535810      2.35872002400432
  C           1.51444987828233      2.08175462428888      2.35241063893494
  O           1.08816552937220      1.70557669337060      1.04259849849940
  N           2.82136891506399      5.62172869474717      2.67134741368469
  H           0.96627726354690      4.70436559443412      2.79629984364881
  H           3.47073746118466      3.07323776439942      2.13978675489743
  H           0.58436634755309      2.31189637021744      2.87778256217462
  H           2.00579674046740      1.23040624321814      2.84205318805195
  C           2.05295221078919     -2.37158138212553      0.54915564116521
  H           1.26325088900238     -0.74168791381993      1.71346770336069
  H           2.96995006060401     -1.10597623001867      2.02271925748509
  H           1.29338688772703     -2.31371855829475     -0.22705186189951
  H           1.75720933736857     -3.13390474497962      1.26655128678829
  H           2.99156315871233     -2.67553031214703      0.09005619859569
  H           2.85389168595280      3.17128612574054     -0.39076923840153
  H           1.58605951996701      2.54455933732719     -1.43397552364078
  H           3.22028314515532      1.86090913931195     -1.53380864670116
  H           3.74924101876975      5.50644451661954      2.29191631812192
  H           2.39482287450341      6.50412770037454      2.43995883050704
