25
Coordinates from ORCA-job NEB_product E -31.715045968330
  C           2.44942858969714      1.21657372846054      0.54195903081927
  C           1.25801214675522      1.47407460306603     -0.36655239544883
  C           2.30756969937520     -0.16505311798508      1.19081976098731
  H           3.37013987564712      1.25592964206216     -0.04718697221122
  C           1.57999638422565      2.25585442032943     -1.61559414140699
  C           2.51189612383337      2.42052824256410      1.52955611107210
  C           1.64976028435829      2.19808034463046      2.74258469935366
  C           0.44108138196654      2.70576672729502      2.89093231033885
  O           0.14529992148237      1.09259857321584     -0.10642349470429
  N           3.90724462325118      2.71124744635725      1.83096000055851
  H           2.12939581646243      3.30271818088216      0.99819218172030
  H           2.09074154007119      1.59699368020976      3.52783340865425
  H          -0.01867664432024      3.30545171753837      2.12309512088340
  H          -0.14808103202710      2.52837715870561      3.77470342047817
  C           3.53276624261139     -0.62146636995410      1.97308224758787
  H           2.12453131668061     -0.88123362668419      0.38519585681647
  H           1.42425670378853     -0.16917189264952      1.83058681673165
  H           4.43385862681396     -0.51297392509107      1.37258712169986
  H           3.42781965102414     -1.66962809424281      2.24489810979381
  H           3.65732732805324     -0.05474936346943      2.89249687062876
  H           2.27599590136046      3.06179884593480     -1.39986786539155
  H           0.67124056551896      2.64801412342361     -2.06452408963632
  H           2.05573957101466      1.57977593746381     -2.32479754971734
  H           4.32615052662827      1.94611481340081      2.34764041300595
  H           3.97230485572743      3.54557820453644      2.40412302738636
