17
Coordinates from ORCA-job NEB E -41.384899817090
  C           0.96237534148487      1.22227350074842     -0.27359817900134
  C           0.34089564383192      1.09110145224212     -1.52228694558311
  I           3.05456560530402      1.11399481975364     -0.17994766853338
  H           0.59319269434179      2.03492949151874      0.33601724843284
  Cl          1.17717682064902      0.16782968322076     -2.75874014169351
  C          -0.12047749091706     -0.20004805128815      0.80811363553533
  C          -1.08068790266714     -0.67095837374209     -0.08989111844639
  C          -1.97655920372042      0.22817867918559     -0.65741642148280
  O          -0.88304833918073      1.27533857108188     -1.66883749781705
  C           0.80781165854069     -1.20416132492351      1.42799293311308
  H          -0.43990732165240      0.55492350893391      1.51669911206635
  H          -0.87540752704285     -1.59616249918675     -0.61167684059438
  H          -2.33997812695314      1.05431290892173     -0.06295646127096
  H          -2.65742324756556     -0.11651644843821     -1.42002322326685
  Cl         -0.20143558882423     -2.40581748295157      2.31666051864664
  Cl          1.75278608356121     -2.08679197259639      0.21818036597763
  Cl          1.88612090081002     -0.46242646248012      2.62171068391790
