20
Coordinates from ORCA-job NEB E -39.026851832670
  C           0.49338663711686      0.51449505512475     -0.26162299703668
  C           1.14704131957748     -0.66142849725852     -0.63075677860602
  C           0.62419306082037      1.88720341249463     -0.48857825700548
  H          -0.20640963034547      0.20263764272157      0.68232608090881
  C           2.26296898380548     -0.50610761113843     -1.65521311760481
  C          -0.88253707500905     -0.30487726092108      1.60787292828079
  C          -1.84354464443571     -1.18902137978378      0.96751191858255
  C          -3.06803545092377     -0.77517457660090      0.65128062316714
  O           0.85752306010640     -1.76683255725470     -0.18654596740195
  I           0.52790281795515     -1.20045803929752      2.87967840749846
  H          -1.30294998567236      0.59264793823594      2.05933212813643
  H          -1.49902183337249     -2.18545443958964      0.73069128276057
  H          -3.40128568570863      0.23061543220712      0.85357721972554
  H          -3.77854452432356     -1.43654178529629      0.18795584762497
  Br         -0.64755735843016      2.94743123781601      0.50720460787077
  Br          2.59763224744884      2.70882433368582      0.14812651067204
  Br          0.49111563239652      2.44215212927363     -2.38678105262460
  H           3.19179489251769     -0.76111996065252     -1.14714374696143
  H           2.34347331957799      0.49046103668118     -2.06975070615483
  H           2.09285421689842     -1.22945211044725     -2.44916493183227
