20
Coordinates from ORCA-job NEB_product E -39.132273950500
  C           1.36609524329286     -1.02993425676995      1.34075129623979
  C           2.82464674913461     -1.50235166268166      1.60147468644091
  C           1.24661539211776     -0.30947618439131      0.00806974579767
  H           1.22129300888349     -0.24771969794336      2.10376703488708
  C           3.35738971112667     -2.70831515986266      0.89573773473650
  C           0.25366254216754     -2.06380401173661      1.58084605711603
  C          -0.08961820908936     -3.01766019958104      0.49283182167483
  C          -1.29919582627706     -3.07438387481585     -0.03964340774076
  O           3.48941499061697     -0.84695560897219      2.35633295292510
  I           0.76568409231848     -3.19681231875040      3.39370021080724
  H          -0.65254541634113     -1.52231473965466      1.86327447655466
  H           0.67155593116960     -3.71378181313424      0.17167189744345
  H          -2.09260774171259     -2.41201625887610      0.26632557626175
  H          -1.53407617026220     -3.77920175589541     -0.81715273601665
  Br         -0.55384136754209      0.45954195986225     -0.19529745419638
  Br          2.52619741618957      1.18059193980286     -0.05989166183906
  Br          1.56737489131787     -1.40602720535056     -1.56617263706214
  H           4.10772600018710     -3.17286551910052      1.53286557554024
  H           3.86270077728856     -2.38222551142995     -0.01451142094849
  H           2.59872798541335     -3.43378812071863      0.62862025137821
