20
Coordinates from ORCA-job NEB_reactant E -39.128125532580
  C           1.36958458100813      0.06310374535696      0.06583569634369
  C           1.20807210986641     -1.26818273961329      0.19132947792493
  C           2.50703324135631      0.75954440750232     -0.53775354027306
  H           0.57194958247230      0.68850573057878      0.43974067274219
  C           2.18996725518365     -2.29586412845954     -0.26967072262855
  C          -0.45565085945150     -3.96892437879781      3.30164243500340
  C           0.28111129264230     -3.39228113320315      2.37244010489539
  C          -0.27044697113831     -2.98591585524728      1.03346540620952
  O           0.02350905242864     -1.63555769485881      0.73311242403385
  I           0.30328580230929     -4.55981061073210      5.16794586935402
  H          -1.49894512931100     -4.20174131509123      3.16945694882765
  H           1.32150890485842     -3.16074220025813      2.55232401066444
  H          -1.36260121211211     -3.03786586107975      1.04545507779792
  H           0.09868179052350     -3.65869447789966      0.24923366801850
  Br          2.19675073670249      2.67879983078391     -0.59860252348950
  Br          4.20966551542090      0.49495925069132      0.48036309385801
  Br          2.87311263519083      0.18414760921998     -2.40183340960352
  H           2.27536709186857     -3.11536867762851      0.43954818365600
  H           3.17812326448838     -1.86716054668169     -0.39744867282487
  H           1.87292131569278     -2.70275095458232     -1.23178420051002
