18
Coordinates from ORCA-job NEB E -40.275927763830
  C           0.15403719338889      0.85119152923291     -1.20722285591635
  C          -1.17288372515865      1.08436733682051     -0.82138266031037
  Br          0.40983339765653     -0.36500716598594     -2.64296303575592
  H           0.81656826801847      1.70527702031306     -1.26122770180002
  O          -1.40546469553017      2.25514719436361     -0.18099156891084
  C           0.65431044531749     -0.16933027499896      0.47389928708599
  C          -0.26858680300133     -1.21231555913823      0.45065447656397
  C          -1.63802722518446     -0.89338231374973      0.58571437769714
  O          -2.01541290043688      0.13207953478993     -0.71907163425486
  C           2.11916055282187     -0.46980702175489      0.48445239344199
  H           0.43995119980024      0.67937479699865      1.12328481185731
  H          -0.00496436692428     -2.13495963758117     -0.04606891010129
  H          -1.91221363794914     -0.21993171701039      1.39213460513129
  H          -2.34807991124150     -1.69331879570030      0.43072609898088
  H          -2.30763045018417      2.26606326087731      0.16988809524211
  Br          2.58549366146704     -0.89694453034481      2.36959013271112
  Br          2.67331516833513     -1.98327106956737     -0.58770535756486
  Br          3.22059382880494      1.06476741243581     -0.01371055409728
