21
Coordinates from ORCA-job NEB_product E -37.619275644540
  C           3.31712715888433      0.97852362291241     -1.11734825195898
  C           1.85555541023791      0.58570105651288     -1.03298198513318
  F           4.00458969226735      0.34053859111836     -0.11334601301715
  H           3.76520331485484      0.66056875678148     -2.06617506755880
  C           1.03356698606638      0.85202871415639     -2.28412739913364
  C           3.45742345227036      2.52944117452110     -0.97865475438390
  C           3.00843499353972      2.94263304721450      0.39710952153168
  C           2.08976784251137      3.86472136439842      0.60925442842158
  O           1.35055358202535      0.11643993454584     -0.05082431432472
  O           4.74295004262018      2.96779105671115     -1.34586873848108
  H           2.81042519571045      2.97983227437297     -1.74007357317851
  H           3.47542210202272      2.41874492581130      1.21863516667349
  H           1.61336104629478      4.39111364828088     -0.20202992190536
  H           1.78013957207162      4.13513755145172      1.60390634126066
  F           1.77661678357435      1.34869586614429     -3.31818337298286
  H           0.24507340369779      1.57912017802479     -2.05925011500873
  H           0.57421267838576     -0.08307656298100     -2.62377663564786
  C           5.78264076052781      2.80106351735756     -0.40097393486559
  H           6.68680835949513      3.12319878995013     -0.91413858904447
  H           5.89713263377527      1.76091143672702     -0.08907149491002
  H           5.62439498916654      3.43137105598782      0.47941870364744
