21
Coordinates from ORCA-job NEB_reactant E -37.625067253570
  C           2.18159710430440     -0.01054942608900     -0.46159135824765
  C           1.58096610931234      0.92293232589912     -1.19266042301708
  F           2.82541106852625      0.20754728173167      0.70891486348740
  H           2.21400533427229     -1.04641882894366     -0.75310887244541
  C           0.89706964314039      0.53882921241024     -2.48449293021859
  C           4.11519395931084      4.09783659613236     -0.70177080648371
  C           3.57992031837124      3.01579784119287     -0.14713700675237
  C           2.10566504785173      2.89953197755604      0.08970132307409
  O           1.42500349363846      2.25350576446800     -0.99268066294029
  O           5.40828845569418      4.33961139138650     -0.99562330626427
  H           3.50981718718243      4.95277774010383     -0.97464602813006
  H           4.17591100561685      2.15874606396219      0.11990704317308
  H           1.64238232367951      3.88818865595420      0.12286281657541
  H           1.90188483531001      2.37314105138130      1.02666821919993
  F           0.97033543656755     -0.80196688041611     -2.73200312642479
  H           1.37042649101386      1.05523074715567     -3.32719405795435
  H          -0.16364143195530      0.80937724970857     -2.44079867965988
  C           6.34469848498159      3.32513590750007     -0.70867306981828
  H           7.31285776958273      3.71308974115321     -1.01962596086313
  H           6.11991341560372      2.41061600480440     -1.26561669158696
  H           6.36579394799493      3.09903958294851      0.36146871529692
