23
Coordinates from ORCA-job NEB E -60.346226247810
  C           0.43071400844489      0.21793578920219      0.84586073290411
  C          -0.93939749739593     -0.10923732975717      0.92436205630249
  C           0.80548348522176      1.58008115150306      1.38771704393342
  H           1.11403889689475     -0.52334384038195      1.26011787950952
  C          -1.44577408164038     -1.42814005152908      1.43157322524517
  C           0.76963225041952      0.16872348018007     -1.06575372651714
  C          -0.46648572957755      0.04828644273514     -1.71131886602130
  C          -1.51668468267878      0.92164060268518     -1.28682470553735
  O          -1.81088064394053      0.56036896587124      0.23400739432646
  C           1.79386010346022     -0.89315679293861     -1.38681255187469
  H           1.21450963214729      1.16307415825676     -1.07960424320107
  H          -0.75968978998833     -0.91878689345663     -2.09949375284261
  H          -2.48230917357024      0.74729092044505     -1.75013737903027
  H          -1.27404519475761      1.98113078915076     -1.24284685855399
  Br          0.98301728719577      1.31886241005847      3.35662943273206
  Br          2.52271660652544      2.31041684538679      0.77906881875531
  Br         -0.50271643291311      2.99729948454887      1.14442311400377
  Br         -2.79633161600525     -1.00773645162921      2.81423611452816
  Br         -2.36808085972709     -2.38987075689528     -0.01756076427142
  Br         -0.12152774882532     -2.58811452214112      2.23387790964576
  Br          2.38268357156485     -0.59511873135860     -3.24808150191721
  Br          3.39287429362946     -0.85531129110311     -0.26666642093436
  Br          1.07439331551617     -2.70629437883281     -1.25677295118482
