23
Coordinates from ORCA-job NEB_product E -60.394087482230
  C           2.81209940419332     -1.30284028378540     -1.71472445166832
  C           1.30246603765050     -1.43053767007817     -1.52947311246478
  C           3.20489204854130     -0.10866082040257     -0.84077657960494
  H           3.33052720426909     -2.17939381944087     -1.30979345137510
  C           0.69886420615914     -2.67666864145140     -0.88905893749633
  C           3.22611426575477     -1.08992899680166     -3.19871656347215
  C           2.07098527395631     -0.75181393562627     -4.10514196438903
  C           1.94771460446220      0.40767510769034     -4.72264763942284
  O           0.55657913837291     -0.55620298428233     -1.86462160377533
  C           3.96577202514514     -2.30608141933084     -3.76564085982708
  H           3.94233231375156     -0.25691922013839     -3.23636318539510
  H           1.34183196176919     -1.53709664322857     -4.25567737197713
  H           1.11393346071969      0.60251286138978     -5.37228905716671
  H           2.65858995981516      1.20769901908548     -4.59925815848769
  Br          2.59460878377489     -0.45261550007506      0.99386489795529
  Br          5.14153544170991      0.13482271821815     -0.77386565444729
  Br          2.43040275476194      1.56732776322012     -1.44305789224870
  Br         -0.55135610016221     -2.09271434834767      0.48948145379390
  Br         -0.35166553127720     -3.52402889635814     -2.31402645979649
  Br          1.91739308914854     -3.96637856506237     -0.13299918592320
  Br          4.52451129143336     -1.91234810095783     -5.59648934917012
  Br          5.58250561879118     -2.75370035394345     -2.74352744617553
  Br          2.85016274725931     -3.90720727029288     -3.79719742746532
