23
Coordinates from ORCA-job NEB_reactant E -60.392991632630
  C           2.32850464330882     -0.38231078491715     -0.42983774828399
  C           1.51573311289761     -1.18324719325431     -1.12731368481194
  C           2.54382584281774      1.06526686798250     -0.61489265714790
  H           2.90535789832514     -0.81814555276636      0.37659903829228
  C           1.38576865286679     -2.63143931181141     -0.69912067988405
  C           3.39646327284771     -1.62017664361432     -4.23536781062175
  C           2.10614709214279     -1.71168918260218     -3.95242119558420
  C           1.30980066568235     -0.55625950068554     -3.43402897113098
  O           0.71829876149615     -0.85673697030588     -2.16343137857372
  C           4.26032567516965     -2.71277444925522     -4.73306805593959
  H           3.92488847934170     -0.67988931131133     -4.12641394272533
  H           1.56269638016887     -2.64126362634256     -4.05998752260431
  H           0.44426108981812     -0.36916415232833     -4.07438145922077
  H           1.92544431142060      0.34610249819910     -3.38792614769426
  Br          3.04992110317710      1.88046528701147      1.09771208683036
  Br          4.06421652920389      1.37304096966733     -1.87301048727046
  Br          0.97992439366188      2.02311357035356     -1.28038957828502
  Br          1.08646666965680     -2.81332003773821      1.22136851622141
  Br         -0.07214767501996     -3.48905218174397     -1.63126635722931
  Br          3.05863136355654     -3.57163971793695     -1.15249842094288
  Br          5.81942444238027     -2.88318463007431     -3.53954356612557
  Br          3.40094085956421     -4.44394160304852     -4.85465829922780
  Br          4.92060643551526     -2.23345434347743     -6.52872167804019
