17
Coordinates from ORCA-job NEB_product E -29.866459330310
  C           1.04716195047311     -1.36118635777835     -1.40214859048511
  C           0.75221744218104     -0.65439980195748     -0.11010667457352
  O           2.34427165099260     -1.87192555712100     -1.36496489398937
  H           0.99424852122226     -0.66847115295010     -2.24748240310927
  Br         -0.72331619989293      0.62629244222363     -0.22907299407668
  C          -0.00807868029199     -2.49908450293537     -1.65919084663652
  C          -0.37060506224833     -3.16888341590348     -0.35786924479827
  C           0.21860601592160     -4.25697906044790      0.10150886857455
  O           1.28998280788573     -0.81645855215139      0.93051052837522
  N          -1.12318098398135     -1.96653703089481     -2.41145149039044
  H           0.51685227605509     -3.21053476330506     -2.30770530479989
  H          -1.16217710731874     -2.68863221932224      0.20538661153596
  H           1.00257773553959     -4.75126990892749     -0.44964781751595
  H          -0.05799478217395     -4.70034807411385      1.04242762396568
  H           2.46975839296002     -2.36471251974452     -0.54250864675288
  H          -1.71940549007351     -1.38058313175247     -1.83681521467848
  H          -1.68941848725027     -2.71758639291812     -2.78636951064503
