17
Coordinates from ORCA-job NEB_reactant E -29.858860678460
  C           1.54604909006198     -0.31132773052028     -0.43327308932830
  C           1.10141778020582     -1.21606065381955      0.43541698708382
  O           2.21547417971372     -0.66953900234846     -1.56837483462177
  H           1.38499406431530      0.74064538214213     -0.24546832531322
  Br          0.10636577061807     -0.52176329150575      1.94746249940484
  C          -0.65025643490789     -3.93735888209378     -1.84374080538055
  C          -0.71338101454881     -3.17409996074168     -0.75341185841232
  C           0.16474514033552     -3.38507442097103      0.43289096928825
  O           1.32209741098683     -2.52576792161748      0.42094155040642
  N          -1.47450661872712     -3.82356643453423     -2.93755382511209
  H           0.03038310719391     -4.77720842906399     -1.88309855613345
  H          -1.38563066470075     -2.32791407381147     -0.71615617171755
  H           0.58813834598158     -4.39010628681962      0.44536493818981
  H          -0.38634591004544     -3.20715153085320      1.36634921474600
  H           2.58296957872777      0.11249277877148     -1.99092907656711
  H          -1.97968851003684     -2.95417498376412     -3.01450941221159
  H          -1.11832531517369     -4.17482455844897     -3.81071020432118
