18
Coordinates from ORCA-job NEB_reactant E -41.226210704600
  C           1.81572984471360     -0.21976862701241      0.43326755706332
  C           1.52848364824435      1.08523750165971      0.57177623326420
  C           1.74417700019498     -1.20314737027726      1.42625301243863
  H           2.11866890808708     -0.58179966507992     -0.53785007406149
  Cl          1.63967506512466      2.12485182038977     -0.79879261103219
  C           2.85321712659069     -0.03237061135530      4.20386973666279
  C           2.50674714750979      0.99786550172507      3.44992101787075
  C           1.12027062040442      1.21252864214848      2.92508254223934
  O           1.13243032077791      1.79594449351303      1.63001367447448
  C           4.19842653163254     -0.29072111518008      4.75715860455085
  H           2.13329746174876     -0.80131959935124      4.45751417349606
  H           3.21516898754291      1.76810195650292      3.17335238645513
  H           0.61163024105020      1.96144042450819      3.54276613567731
  H           0.53759528845534      0.28637561561269      2.93502591116779
  N           1.70701543004073     -2.04821971344194      2.20381546816788
  Br          4.07767168451250     -0.42265522385700      6.71860290375232
  Br          4.86388594190966     -2.01182705167369      4.06765110310773
  Br          5.52000875145989      1.06488302116899      4.34197222470508
