18
Coordinates from ORCA-job NEB_product E -41.235337999260
  C           2.87224148582550      0.44065315803287      1.56697437000822
  C           1.90564616267565      1.43750534430195      0.94618569700418
  C           2.61926793477856     -0.85634126150740      0.96649439229596
  H           3.88792583232304      0.74793724128395      1.27937902210241
  Cl          2.07588721763435      1.49682495531510     -0.79476106839131
  C           2.70482782040190      0.43211892660875      3.10567660881444
  C           1.57606109508870     -0.47346570693548      3.52308133371632
  C           0.45278913889595     -0.02543550549380      4.04953254671082
  O           1.12081119368041      2.10890782273943      1.52387819799974
  C           3.99207376752248      0.04789103335788      3.82405527685143
  H           2.46002810332192      1.45872362804440      3.41126456279982
  H           1.73426947481850     -1.53043043814008      3.35421861911313
  H           0.27728004108251      1.02496260264260      4.21230556531020
  H          -0.33901733715489     -0.69713852044740      4.32938360277291
  N           2.40572496190888     -1.87348899608215      0.49661633057147
  Br          3.69308330231597      0.08465570651413      5.75418551580373
  Br          4.63581891178205     -1.72950503024559      3.33575109431908
  Br          5.42208089309853      1.33932504001084      3.42717833219744
