14
Coordinates from ORCA-job NEB_reactant E -26.589100227940
  C           1.99748911961833     -0.06108791491210     -0.10493576842177
  C           1.15575334895895     -1.04178697019096     -0.37314433186434
  H           2.88476287362621      0.06374651284565     -0.69146652819244
  H           1.81047846493765      0.60668654504296      0.71208130769684
  F           0.02750344994812     -1.19713092610755      0.35840088968491
  C          -1.06363628515644     -2.13153131387645     -3.79074092709970
  C          -0.77210025929730     -1.89776761769949     -2.52464759991184
  C           0.20547613353753     -2.72999678332728     -1.74835277236888
  O           1.33048923815429     -1.96875413390472     -1.32497184501579
  Br         -2.29871517300297     -1.08660413911624     -4.76292068771213
  H          -0.64169554193833     -2.93885640208263     -4.36833539165712
  H          -1.22015005550583     -1.06991518036533     -1.99239273596597
  H           0.62720552049869     -3.52292190602015     -2.36891576906607
  H          -0.29896083437890     -3.17657977028570     -0.88115784010571
