14
Coordinates from ORCA-job NEB_product E -26.614969772440
  C           0.86436791490917     -0.33489168717607     -1.49833767634201
  C           1.54323570452434     -1.10246269295699     -0.41074058589683
  H           1.62277558034639      0.27662375874038     -1.99943403810510
  H           0.14587795260769      0.35522587032240     -1.04473545369163
  F           2.03215957212603     -0.24595961260635      0.53025868183369
  C           0.17816664709580     -1.27518668055954     -2.48152046499315
  C          -0.98036773878755     -1.99012780799075     -1.88057869058120
  C          -1.13191333502335     -3.30059261412350     -1.92885528604950
  O           1.70460588206147     -2.26232833448360     -0.28194753912647
  Br         -0.46843431092658     -0.18420845118179     -4.01371290773715
  H           0.89348343009864     -1.97717902024112     -2.91374976351324
  H          -1.71975078936123     -1.35826499371383     -1.40600538311748
  H          -0.40663906836358     -3.93940722283252     -2.40446639399986
  H          -1.98126744130722     -3.78654051119673     -1.48227449868006
