73
Coordinates from ORCA-job A2R E -110.255317897820
  Ru         -0.50854723491710      1.80050354916892      0.17652009368183
  H          -0.45170825598605      3.34715521268198      0.06779707494173
  N           0.87773836694811      1.99278215654803      1.74036310205722
  C           0.49847923979844      2.52032963287251      2.91663095828743
  C           2.15788901129144      1.60576934200043      1.59473763322218
  C           1.38038360622688      2.66206270706983      3.97886130984852
  C           3.08489234428589      1.72690669535888      2.61993019478569
  C           2.69672781892793      2.25941953524391      3.83607007719792
  H           1.03235672404973      3.09371901334691      4.90514521334226
  H           4.09954278402897      1.40226833097540      2.45450528153381
  H           3.39977055037096      2.36331585847138      4.64757091622809
  P          -2.00043818678341      2.06880330290693      1.87904733135433
  C          -3.50027738583024      3.22532404088440      1.73494835525074
  C          -2.49456013030501      0.54413611497200      2.92045920888666
  P           1.41304922603259      1.68759768802864     -0.97320898203148
  C           2.01515373555625      0.88912210883563     -2.53861665300172
  C           2.26964835251828      3.31185852073500     -1.27587373450554
  C          -0.91213110599230      3.00520800712913      3.04724163051800
  H          -0.94366197480995      4.03991318112575      2.68375842867173
  H          -1.25073453285559      2.98595001309566      4.08639614982610
  C           2.56666939725994      1.01075758327135      0.28303614422863
  H           3.61629166457795      1.20843849827349      0.04818061631650
  H           2.40370806415036     -0.07741722028425      0.30909357269122
  C          -1.70517540974853      1.61340297811591     -1.21140783358799
  O          -2.44640873450672      1.45540443456974     -2.08467839016455
  H          -0.43148657874623      0.26174609255639      0.33779950389994
  C          -3.90594259360036      3.92547374939203      3.03271383093836
  C          -3.13733713817780      4.30134543962664      0.71006594406395
  C          -4.66578521331807      2.41849472026115      1.16103553296684
  H          -3.12713801615009      4.60245245332429      3.37558463654853
  H          -4.79883271382500      4.52052688169507      2.84142020965823
  H          -4.13756261327192      3.23018891011114      3.83090965646506
  H          -2.91117245771961      3.84775466978567     -0.25323345282706
  H          -3.97487722479215      4.98744496506494      0.58706793626240
  H          -2.26989176631194      4.87884852143647      1.02213667084553
  H          -4.31205227664237      1.80093040744859      0.33384903145012
  H          -5.12719206763193      1.78308071383472      1.91221529411933
  H          -5.43221908685711      3.09201422092421      0.77909615472393
  C          -1.17601532313939     -0.07725532370652      3.39424177865725
  C          -3.36426941897124      0.79956415693777      4.14920821054804
  C          -3.19009944918042     -0.44503379848723      1.98140662025102
  H          -0.69795457406448      0.52997649502819      4.16127547563867
  H          -1.36330765056736     -1.06291140643741      3.81967325372284
  H          -0.48676675412919     -0.19758409616575      2.55908881104287
  H          -4.36850099931480      1.11327479047781      3.87931054859075
  H          -3.45277187938564     -0.12989075945218      4.71227523023845
  H          -2.92067524299936      1.54251489050321      4.80908221425945
  H          -4.24091822779070     -0.20609265938893      1.84827899821212
  H          -2.70637277457042     -0.42111790491937      1.00365746926380
  H          -3.12570019963246     -1.45646283811531      2.38126831584353
  O           2.90714141548512      3.89408140595194     -0.44089583153694
  O           1.99386252822553      3.78188722164227     -2.48579508068182
  H           2.31834640756597      4.69284866459513     -2.60366183254055
  O           3.09209268027466      0.39170859718104     -2.70215928106128
  O           1.07703247091131      1.02936023333120     -3.45679278981320
  H           1.33033518166566      0.64842775564067     -4.31805324431729
  C           0.81081877832474     -2.35756693023159     -0.29092933713276
  O           1.89063581031809     -2.11622077879990      0.20676605482735
  C           0.55282568654056     -2.12942132533669     -1.73471765203140
  C          -0.69392467532397     -1.74007516369771     -2.21936647489868
  C          -0.87769478745862     -1.54012747465863     -3.57448186361249
  C           0.16774549850915     -1.75331378696119     -4.45982195777642
  C           1.41055002610408     -2.14441976327460     -3.98538786159712
  C           1.60659343807512     -2.31511585037116     -2.62803775514098
  C          -0.33079156708772     -2.92681718328484      0.50685175617287
  H          -1.51099722663345     -1.55981739197205     -1.53914886459762
  H          -1.83926871744022     -1.21525309958809     -3.94139769443942
  H           0.01271645272613     -1.61222356536377     -5.52051297305377
  H           2.23011756025880     -2.30644851318911     -4.67050990625026
  H           2.57376636980766     -2.60050217037483     -2.24200082368117
  H           0.03589504241255     -3.30336909023641      1.45860264170319
  H          -0.83570037098282     -3.71483168605510     -0.04586117024957
  H          -1.04271369577713     -2.12660468207967      0.69957636674612
