73
Coordinates from ORCA-job A2S E -110.260311023610
  Ru         -0.23895318078189      1.47674974985179      0.44375773228692
  H          -0.33281277821603      2.91126353464531     -0.14460215562591
  N           1.02094384990177      2.25574005102244      1.91815417884036
  C           0.52563975572321      3.06552688155979      2.86872960091194
  C           2.32931238708291      1.94614738412117      1.95738830392670
  C           1.31821153617502      3.57943001161179      3.88550444961004
  C           3.16879552646756      2.42594402708807      2.95250862177007
  C           2.66308860096389      3.25725654250898      3.93542430235887
  H           0.87930765413854      4.23295048748733      4.62438929981179
  H           4.21166371198828      2.15125144894031      2.94181895652603
  H           3.29860751388036      3.64789415500977      4.71482148429282
  P          -1.85096194556728      2.08338892418871      1.92866728623865
  C          -3.43634281101741      2.98171564439286      1.38945285836327
  C          -2.27207418312464      0.89652327830406      3.36614634275928
  P           1.78754123566966      1.30147590272737     -0.56738355285660
  C           2.85096957814183      0.71831656613186     -1.97314847752820
  C           2.31199077214181      3.07386989122092     -0.86563130682745
  C          -0.92294075015570      3.43548487328652      2.78810959554267
  H          -1.01302942995031      4.29937282477418      2.11789808847005
  H          -1.32618071571964      3.70304742693309      3.76844800576565
  C           2.86888808633198      1.04332519184338      0.89100458348584
  H           3.92059535622645      1.24576811566110      0.66808135706379
  H           2.75028349167172     -0.00544266947824      1.18207804899263
  C          -1.31097000884046      0.71375695308443     -0.83385596859409
  O          -1.95217099953402      0.16767064401307     -1.63271818667770
  H          -0.02963611499125      0.09472338522425      1.09826236320647
  C          -3.99151437844799      3.98639398191090      2.40018836462463
  C          -3.10481050642315      3.74051231010645      0.10333396725672
  C          -4.48148865865311      1.92171670158279      1.03856552088931
  H          -3.29521465367108      4.80547129825898      2.56368521040207
  H          -4.91160045856537      4.41075803416705      1.99831204759160
  H          -4.22685608964218      3.53423170475858      3.35630499459954
  H          -2.76648680408569      3.05020088818663     -0.66736547502592
  H          -3.99314016992398      4.26020229882319     -0.25517145449928
  H          -2.32176580315477      4.47880435063649      0.26145607443082
  H          -4.01450974310125      1.13051521532620      0.44931543743355
  H          -4.93432359715335      1.48871973429031      1.92655476689913
  H          -5.27775328115690      2.36682291995757      0.44253815039995
  C          -0.94298838174957      0.59297285096727      4.06472366308521
  C          -3.25400903284724      1.40889855093439      4.41740496802418
  C          -2.78895256701041     -0.40363192899670      2.74701769066463
  H          -1.07714606993387     -0.22774914912380      4.76900761067394
  H          -0.19573964223641      0.28560612264132      3.33416600850418
  H          -0.57034193779297      1.45263781503347      4.61949114856010
  H          -4.26024600681609      1.50678790477455      4.02036131058479
  H          -3.29478945474707      0.68975981210912      5.23594979519090
  H          -2.93658763044486      2.36319150233350      4.83328821412666
  H          -3.82222575903242     -0.31872302953466      2.42506159406110
  H          -2.17519543036579     -0.66646624836251      1.88454518751691
  H          -2.72748974774353     -1.21533550084394      3.47081586103801
  O           2.76050802494711      3.82656321067896     -0.03992639857937
  O           2.06385812367080      3.42406619224396     -2.12562736490941
  H           2.20353184499385      4.37737020718088     -2.26546665082578
  O           4.02781372586261      0.51254496747272     -1.89115732993564
  O           2.14254255766089      0.66390599377863     -3.08822206529148
  H           2.69767828224690      0.43348853085898     -3.85493108888578
  C           0.78477288616426     -1.86633320740427     -1.08364853981742
  O           1.71283616626675     -1.11206263228704     -0.82682812149988
  C           0.03234683990771     -2.53599978029213     -0.00613763615698
  C          -1.30027924967808     -2.91540209325215     -0.16141089545906
  C          -1.98439198064793     -3.48483180017090      0.89599436045474
  C          -1.34897606720147     -3.69521960379788      2.10936503841635
  C          -0.02450717235529     -3.32192610624958      2.27188842974388
  C           0.65890048388803     -2.73953668737948      1.22366961875429
  C           0.35992986153510     -2.13332681776495     -2.49875697046141
  H          -1.81345064962503     -2.72851838052682     -1.09122406344478
  H          -3.02160076238656     -3.76137411452030      0.77657390382101
  H          -1.88881747864675     -4.14449425646588      2.93034444967644
  H           0.47024274519788     -3.47829657612583      3.21942353945218
  H           1.69048805103783     -2.44000839639481      1.33436835903550
  H           1.18285705109572     -1.92267344506917     -3.17613708223431
  H          -0.45374114967520     -1.44721157083018     -2.73558759052659
  H           0.01376753183361     -3.15447299977421     -2.62992237047312
