73
Coordinates from ORCA-job A3S E -110.225295083670
  Ru          1.41279197230067      3.83643643762724      0.10333693311389
  H           2.72952155921803      4.56153510137621     -0.04476375372330
  N           2.25627659718721      2.91383954204960      1.80114219545763
  C           2.36550739660501      3.55720281857870      2.97153086932898
  C           2.69334232447720      1.61382762979074      1.70937465103017
  C           2.74765397786144      2.93015323804585      4.13840605846879
  C           3.06701387198154      0.92183842615075      2.89805470713112
  C           3.07487587495251      1.56722988482875      4.09651162298673
  H           2.81390475078524      3.48589551505205      5.05999769547993
  H           3.35435743274590     -0.11478734501117      2.81135699463765
  H           3.35784776437128      1.05232566398997      5.00293296740652
  P           0.87787148777470      5.44505420740198      1.66100398845162
  C           1.22722230358703      7.27174118722011      1.30617380278085
  C          -0.76541707479764      5.27899571407433      2.61402496998126
  P           2.43687790129156      2.03888258475624     -0.91367506265589
  C           2.07906480437801      0.86789335040428     -2.31082311904861
  C           4.18952439806699      2.40020711073620     -1.44036136255725
  C           2.11867948648418      5.03983047542135      2.95752885984719
  H           3.05071190485484      5.51540966329597      2.62912901513909
  H           1.85579422385210      5.42252268089430      3.94647952946213
  C           2.70502631340231      0.98635325634224      0.46744065040857
  H           3.15618851346514      0.01432918607984      0.32711914080182
  H           0.30989271561474      0.26259109898087     -0.21495611773706
  C           0.73900503959602      4.67390023041156     -1.39247595825258
  O           0.35172213420656      5.22614797788126     -2.32933052480788
  H          -0.03338001765884      2.73747575021655      0.18487369831227
  C           1.57527270084045      8.10015828656145      2.54381522110370
  C           2.42511232017343      7.30378173633605      0.35404958704627
  C           0.02745061964468      7.87149178458195      0.57286383984324
  H           2.49146397330392      7.74640717131716      3.00966788920067
  H           1.73831344764038      9.13298305221460      2.23739715567784
  H           0.78356584216612      8.09676144826975      3.28445009556082
  H           2.17896189835199      6.81515800752178     -0.58771401178213
  H           2.70250059426105      8.33665034395767      0.14854747486445
  H           3.29035095805307      6.79778060462566      0.77844861391066
  H          -0.29637218847948      7.19976801894370     -0.22196231212687
  H          -0.80539531186899      8.05969363227726      1.24541545644776
  H           0.30938698209543      8.82060067779164      0.11934346541841
  C          -0.69802000929065      3.89747584314216      3.27289355423428
  C          -1.05195046484243      6.31242663842375      3.69867796783990
  C          -1.89162203802279      5.27829506407667      1.57846916948569
  H          -1.68932644113891      3.58045195956400      3.59589991267413
  H          -0.32580818421194      3.14706520154188      2.57378956201377
  H          -0.04744364921465      3.90197724227576      4.14456669314823
  H          -1.23906408658771      7.29788210646438      3.28161733957918
  H          -1.94710973745904      6.00903685428092      4.24203865161940
  H          -0.23617125375816      6.37611622563287      4.41555945186859
  H          -2.13940496878806      6.28520391950072      1.25523178984151
  H          -1.58642471973427      4.70541521915686      0.70081802901125
  H          -2.79100897882677      4.82448168196016      1.99343267722696
  O           4.91362221815827      3.16701355072448     -0.86891923526922
  O           4.60059085641837      1.58418862524404     -2.41917870381240
  H           5.54924382077286      1.70836656846968     -2.60105711509858
  O           2.12956651335839     -0.32592654703241     -2.24787954888884
  O           1.78662653093611      1.56620032276082     -3.39832264562669
  H           1.62295607071695      0.98885140260569     -4.16438457783732
  C          -0.76891210760586      1.91737127498069     -0.17723888256742
  O          -0.04806334205461      0.90908981552999     -0.84085187268346
  C          -1.47663171081330      1.38735443193007      1.05123087307651
  C          -2.82706401246990      1.60290259375559      1.29331198464171
  C          -3.42228047106415      1.09885672428636      2.43776124452111
  C          -2.68075428695409      0.37706595915317      3.35578731859489
  C          -1.33233313799444      0.16179441774950      3.12609015084128
  C          -0.73659251323041      0.66289178834525      1.98449327004173
  C          -1.68178779824410      2.52211090990085     -1.24016644266773
  H          -3.42579693756745      2.16344929594446      0.59389105450601
  H          -4.47427763720339      1.27309960002511      2.61018304971295
  H          -3.14879182001799     -0.01297465625831      4.24704872234804
  H          -0.73907540442533     -0.39228990267235      3.83777449786754
  H           0.32466894600579      0.50564286620409      1.83594008640032
  H          -1.07238223796440      2.78621584052676     -2.10248229454834
  H          -2.19821383917174      3.40967362752269     -0.88748591336568
  H          -2.40679266049593      1.77347738328916     -1.55339474533781
