15
Coordinates from ORCA-job NEB E -27.046199736490
  C           0.45670268974023      1.27591478375310      0.26748490891614
  C           0.86153221381458      0.26761462616460      1.14002796475139
  O           1.21425448882355      1.50516071238806     -0.84514069650432
  H          -0.00152352577439      2.15108432927951      0.72465635050968
  F           0.22357825862931      0.33959108719230      2.37266414100638
  C          -1.12669872923839      0.23484020032856     -0.45944381922379
  C          -0.51767126249771     -0.92771074805252     -0.88575421651028
  C           0.03954664757303     -1.78678197538572      0.10094332996894
  O           1.24642546386805     -0.88281061159522      0.78763485125450
  H          -1.49599211276059      0.93465395621249     -1.19560879651250
  H          -1.68838688928555      0.22443113198198      0.46442816675415
  H          -0.11001281440962     -0.97008781225325     -1.88502155490645
  H           0.58681545826367     -2.65491433017487     -0.24124723249558
  H          -0.57261711264788     -1.98526100747786      0.97613624066044
  H           0.88404722590172      2.27427565763885     -1.32175963766871
