15
Coordinates from ORCA-job NEB_product E -27.098193465800
  C           0.21260236417582     -0.36561074832367     -0.34305074567009
  C           1.14944370630541     -1.00090027220242      0.64578295105942
  O           0.92278307190095      0.15534502276129     -1.42779977623816
  H          -0.31133883571794      0.47114121247664      0.13529310691251
  F           0.52979792831042     -1.27471969694891      1.82210300413454
  C          -0.83381141053362     -1.43721182339118     -0.76022904818056
  C          -0.16980289292239     -2.66056614513318     -1.31358017121703
  C          -0.19497908932390     -3.84249313632846     -0.72794584376222
  O           2.28159590246248     -1.29696166679905      0.48633965026602
  H          -1.46939994935042     -0.98072911690444     -1.52144742856779
  H          -1.44065665589747     -1.69128146285605      0.10953702713114
  H           0.35934309824697     -2.51954464001946     -2.24679327161481
  H           0.30042476351666     -4.69831111668936     -1.15217451203821
  H          -0.71769597283493     -4.00417760308076      0.20077140854505
  H           1.70159397166196     -0.39527880656099     -1.58710635075981
