24
Coordinates from ORCA-job NEB_reactant E -43.515963143150
  C           1.59467975449679      0.39240532664729     -0.84181659115543
  C           1.56186674172365     -0.68151353984543     -1.65321222389365
  C           1.62101243280155      1.74743616600701     -1.18536648021091
  H           1.58416888468789      0.21788945797551      0.22546328795620
  C           1.46346407149050     -2.07033820348088     -1.08281560190049
  C           3.38105706436464      2.27733766707258     -3.81884960157966
  C           3.08014839913737      0.99156110066235     -3.74389195368889
  C           1.67828302053968      0.46184592055015     -3.76149515935104
  O           1.55565473952737     -0.72152442174599     -2.99935312936543
  C           4.74098011373507      2.85129447969951     -3.81832067879130
  H           2.60099800223639      3.02732741425915     -3.86936237181665
  H           3.84500837969472      0.22852891153811     -3.67523728772345
  H           1.42832528301105      0.15178988709169     -4.78349557710021
  H           0.95948846363420      1.22176739398071     -3.43786188870943
  N           1.65017868892993      2.87555909341049     -1.40768767839723
  C          -0.00047870991531     -2.45112080682149     -0.85110651822448
  H           2.01157494427775     -2.12485030493370     -0.14197904081156
  H           1.90913374289926     -2.76671139491831     -1.79401805384834
  H          -0.46688761135524     -1.76736005046063     -0.14548258929298
  H          -0.06358430181031     -3.45943781373106     -0.45083264526475
  H          -0.55318616095111     -2.41427151170574     -1.78656129227446
  Br          4.93522233102826      4.09571230599365     -2.30698987736306
  Br          6.17086092938231      1.54841789846911     -3.69691945606191
  Br          5.01413079643361      3.87065502428591     -5.48570759113086
