24
Coordinates from ORCA-job NEB_product E -43.518065741140
  C           2.92079909389836      0.17704386796378     -2.15897674353918
  C           1.66233271138227     -0.71200578089055     -2.34589144231840
  C           3.03272988651250      0.56902882706580     -0.77428801214207
  H           3.78190746113476     -0.46217418809218     -2.40190576126560
  C           1.54235470434760     -1.82084395699867     -1.33944222093038
  C           2.86292053851827      1.38957098751740     -3.11392754837483
  C           2.10450328982281      2.53186876193118     -2.49255806810733
  C           0.91224269450096      2.91144586811212     -2.90975681321147
  O           0.88819193738393     -0.50716356608402     -3.23708919132950
  C           4.24245722958803      1.84631186278337     -3.56222902964440
  H           2.32113138809428      1.05914723757583     -4.01238237187303
  H           2.58994054386670      3.02237161837935     -1.65882145476809
  H           0.41347084325390      2.42208538416011     -3.72998061854557
  H           0.38584117352516      3.72193461606143     -2.43764017029738
  N           3.10049349608634      0.86648310706118      0.32683215479278
  C           0.40613192311257     -2.77721680655334     -1.67734963394165
  H           1.37275997568713     -1.35820656763790     -0.36205850721377
  H           2.49433727376968     -2.35415252305201     -1.27727553963964
  H          -0.53509240520151     -2.23708223260622     -1.73509831638575
  H           0.32389489229595     -3.54750540989457     -0.91594141059759
  H           0.58426104757411     -3.25154043122078     -2.63914004893640
  Br          4.06663765318380      3.37253897873778     -4.77415914872110
  Br          5.39116636798098      2.37856410352004     -2.07194277573337
  Br          5.16588627968140      0.41999624216085     -4.55117732727628
