22
Coordinates from ORCA-job NEB E -45.331214551440
  C           0.67171853591424     -0.36959642771427      1.01991653750214
  C          -0.56295009801337     -1.02234227982595      1.07652639168274
  O           0.94953354228519      0.54328969133111      1.98698418732945
  H           1.55577301803758     -0.85220818035305      0.63096962901709
  C          -0.79362194966881     -2.29663293971452      0.27741016914582
  C           0.19040243652860      0.95312603878901     -0.56593228180157
  C          -1.20871649090746      0.91132006876007     -0.64809448832441
  C          -1.99323153357431      1.14451751602105      0.45686257683751
  O          -1.55963801172823     -0.41087561153399      1.55381262436185
  O           0.88734322198847      0.53872483841360     -1.63989181524542
  H           0.65911538327941      1.72845774657914      0.03723608712990
  H          -1.61490526955670      0.33989837192066     -1.47172781958860
  H          -3.05835206778337      1.00377550679868      0.39583158594048
  H          -1.65762293323974      1.82131943020594      1.22664208698670
  H           0.12368951105802      0.70643007342993      2.47289165082115
  Cl         -0.59775002573958     -3.67019301000991      1.40851544750814
  Cl         -2.43525563653010     -2.33610990588084     -0.37710861558823
  Cl          0.35595469332076     -2.51421750101092     -1.04928796315019
  C           2.25586812199533      0.88380435026115     -1.67854303150458
  H           2.79575336129305      0.47578358193562     -0.81979127332831
  H           2.38502805602971      1.97022373506728     -1.69845612612944
  H           2.65186413501129      0.45150490653019     -2.59476555960220
