22
Coordinates from ORCA-job NEB_reactant E -45.362305814430
  C           1.30430555368524      0.10183438212042     -0.16287511882850
  C           1.63708997178191     -0.26590595060634     -1.40490915371458
  O           1.20748140940402      1.40009942889928      0.25465651423145
  H           1.08454027775416     -0.66235695813194      0.56641156397187
  C           1.71458659811127     -1.70822391387174     -1.81427887515967
  C           4.28882148956014      2.58554121742253     -3.71352131605748
  C           2.99666891463050      2.35092508651334     -3.51691739613772
  C           2.46578519060569      1.83039204711748     -2.22151052314780
  O           1.97712627323883      0.50967344474982     -2.46927597939679
  O           4.90151220001014      3.04323950232634     -4.82401794753156
  H           5.01769515907630      2.44208461139881     -2.92622696464229
  H           2.26253872514828      2.47444507490664     -4.29624715084429
  H           1.64611952083026      2.45790434264662     -1.85395539790386
  H           3.25470036258425      1.79352123127077     -1.46286079098658
  H           1.01586692675065      1.42270046694471      1.19736210293823
  Cl          1.04246685230511     -2.83218389742170     -0.63637731062802
  Cl          0.85103835923382     -1.93789067751236     -3.35173982129538
  Cl          3.43208124244033     -2.14237589599260     -2.07674717645582
  C           4.10423687121690      3.26533127807026     -5.96516604748338
  H           4.78355638518446      3.60408567595767     -6.74523544385377
  H           3.34999825381433      4.03514016240199     -5.77561156544650
  H           3.60768346263343      2.34441934079000     -6.28445620162755
