22
Coordinates from ORCA-job NEB_product E -45.353533577780
  C           2.71900318844168      0.65342214346637     -1.63747276511868
  C           1.67286599948538     -0.23077716493114     -2.29779519968057
  O           2.20211440252876      1.33590515799765     -0.53063002244591
  H           3.59699685103792      0.05244621804736     -1.36119601489516
  C           2.12777990937125     -1.66025592922867     -2.64238200949942
  C           3.13932897966295      1.71658370724564     -2.69083917704941
  C           2.05897556056703      2.75007221286950     -2.83889853301294
  C           2.23555027291666      4.02805467237900     -2.56476858648079
  O           0.53278452874387      0.08810747679231     -2.46197644862662
  O           3.37858965308508      1.00582549253490     -3.89148987877235
  H           4.06670436272497      2.19841320075354     -2.34219461350598
  H           1.11330842731363      2.37219067086483     -3.19850328779297
  H           1.44215188929832      4.74584007067254     -2.68005792695227
  H           3.17684844509455      4.40679403000468     -2.20097083510672
  H           1.75297745208960      0.71582383112630      0.05559075955852
  Cl          2.01758213297808     -2.47032895299843     -1.04324797059284
  Cl          1.00517035659018     -2.42354397876687     -3.76402907199406
  Cl          3.77079384819155     -1.80217067617604     -3.24449718253188
  C           3.96113609040702      1.79411460394227     -4.90333522021657
  H           4.92381203538210      2.20208342039064     -4.57425259772671
  H           3.30516160581834      2.62043791372184     -5.19496377224111
  H           4.11606400827108      1.13056187929180     -5.75118964531556
