20
Coordinates from ORCA-job NEB E -37.767324297780
  C           0.89244422356611      0.48495961843556      0.22916640671937
  C          -0.00204103101843     -0.20727132354990      1.05916105164321
  C           0.70753688333379      1.95862762843529     -0.01561684481756
  H           1.95051615859724      0.27898554364783      0.36363223833629
  C           0.45539262847771     -1.44301548047111      1.77956050054987
  C           0.39423177161430     -0.27715754103343     -1.48392249005783
  C          -0.97346431441094     -0.04382621393602     -1.54304160051795
  C          -1.79088224414227     -0.62489746847615     -0.51946997429460
  O          -1.28646146335940     -0.04296750496410      0.86902401043542
  H           1.03069569529409      0.23502882081930     -2.19206181914757
  H           0.73453677301545     -1.27856572869435     -1.25023753900613
  H          -1.33394528093731      0.84980004593240     -2.02886926163379
  H          -1.66251876743674     -1.69595891912445     -0.36437872084640
  H          -2.83563999132036     -0.33689820372748     -0.52637232338551
  F           1.41421609055122      2.39351939157406     -1.07716922187183
  F          -0.54398895685179      2.37096038708064     -0.20159350550248
  F           1.18150044156818      2.65973600723678      1.03734808069603
  H           0.35554365847060     -2.31231200024008      1.12340408023807
  H          -0.17789498369234     -1.61059217566134      2.64706251289088
  H           1.49022270868089     -1.35815488328344      2.09437441957251
