20
Coordinates from ORCA-job NEB_reactant E -37.798441353980
  C           1.84057708110340     -0.04149913996878      0.08266777498387
  C           1.23862326393518     -1.11110763033937     -0.46074932822794
  C           2.01431173133992      1.22631178512241     -0.67379362435557
  H           2.22988146600162     -0.04747962909207      1.08272042517622
  C           1.06410191988135     -2.38276927674406      0.30746183372148
  C          -0.21353123288007     -2.40716121601339     -4.78955769406654
  C          -0.28134804813080     -1.64406215909536     -3.71656149088912
  C           0.11248621885389     -2.08972343356390     -2.34067040243158
  O           0.79456470737000     -1.01075273095836     -1.72363050488756
  H          -0.52416050312653     -2.05104649402123     -5.75574406977508
  H           0.14591295180208     -3.42253175335113     -4.74652322414085
  H          -0.63211813223258     -0.62386282120173     -3.76627832538782
  H           0.75124402455256     -2.98008171169296     -2.39200946192120
  H          -0.79351292737202     -2.33871671740589     -1.76719517735479
  F           2.78655007695134      1.10002214872395     -1.77262253018953
  F           0.85420161082629      1.75998952817648     -1.10713766675264
  F           2.59850785159394      2.17408748957567      0.08016399536076
  H           1.56069353667478     -3.20704911609507     -0.20270836891275
  H           0.00743797261560     -2.62973503667710      0.40284420231815
  H           1.48957643024004     -2.27693208537811      1.29942363773249
