20
Coordinates from ORCA-job NEB_product E -37.812414962660
  C           1.69593804669279     -0.71908882393899     -1.52529362945194
  C           0.81796686877949     -1.13091499744799     -0.33436050212731
  C           1.70606080344319      0.79627559303653     -1.69481724249383
  H           2.73660117074400     -1.00033777105090     -1.33460535131763
  C           1.20267847054765     -2.45158627634627      0.26726317214295
  C           1.20078165585294     -1.42444457911625     -2.80953643858778
  C          -0.29625533235980     -1.46320184143820     -2.90224678934759
  C          -0.99371801737473     -2.58133881900576     -2.95769925080000
  O          -0.08916482693484     -0.45368990750456      0.05777890572802
  H           1.60867029947686     -0.89277165165708     -3.67412858654789
  H           1.59455998969630     -2.44215831801250     -2.82419297065763
  H          -0.79347867458682     -0.50475920580637     -2.91742507918521
  H          -0.52206560246364     -3.55131523242631     -2.94326405171304
  H          -2.06678767516661     -2.57630527650916     -3.02977010737494
  F           2.57379503419475      1.15684772183947     -2.66394201869184
  F           0.53635243796573      1.33560032938450     -2.02801866250049
  F           2.12632520403047      1.41182582870855     -0.57983631139599
  H           1.32656162115999     -3.20311842686873     -0.50756121084086
  H           0.44317371634742     -2.76929667723147      0.97575955711601
  H           2.15140480995485     -2.34002166860850      0.78979656804699
