21
Coordinates from ORCA-job NEB_reactant E -32.767108240450
  C           2.18461307833063     -0.27555510091942     -0.47813800154229
  C           1.47984227255951     -0.05217541604530     -1.58869965704571
  Br          3.21692263533906      0.93471618198534      0.53444485092278
  H           2.17810710540894     -1.26978329288841     -0.06924580137082
  O           0.80585491892728     -1.11176166788561     -2.10375455747515
  C           4.03353324681514      1.20135481733061     -3.06051667488170
  C           3.43795543572836      2.17114576286118     -2.38745220864300
  C           1.95886070896636      2.25529045500844     -2.14226584490143
  O           1.25867686363959      1.03876458747245     -2.35246427143045
  C           5.50296721515320      1.06232199399032     -3.30391256621636
  H           3.43919464200684      0.40076069041682     -3.48591886626364
  H           3.99512720774014      2.98484627818194     -1.95119866867681
  H           1.49783332077675      2.94455266535225     -2.85960515438718
  H           1.76173976618685      2.63836623558273     -1.13500114861517
  H           0.32574792110708     -0.80630510452579     -2.88595296714509
  C           6.36531562079234      2.14086664123062     -2.66335998543754
  H           5.66908550939503      1.05227254048049     -4.38628687344498
  H           5.81342665692192      0.08137891568370     -2.92980565982091
  H           6.11436830510088      3.12185910185432     -3.05954183335558
  H           7.41503161979833      1.94691149983869     -2.87096610204591
  H           6.22449594930578      2.15067221499462     -1.58535800822307
