19
Coordinates from ORCA-job NEB_product E -46.675747309980
  C           2.50737595111016     -1.27121249727679     -1.15895978956444
  C           1.34732854875350     -2.14621747126707     -0.72128009445944
  N           2.10479239916245      0.17733944945383     -0.99718043180766
  H           3.39754032624726     -1.42150407470220     -0.53963091594905
  C           1.54888983143921     -2.89290413331721      0.59192422540296
  C           2.84402693247409     -1.49655118458564     -2.64325204530117
  C           1.78802548865077     -1.06105997856514     -3.59683347176750
  C           2.03450686785212     -0.21731553038770     -4.58359565365768
  O           0.29956830254425     -2.20286821774981     -1.28853677746194
  Br          3.16694152937709     -3.45349478411340     -2.86596411510773
  H           3.80371588848264     -1.02538205990798     -2.87139630697160
  H           0.80769065781858     -1.49014357573418     -3.45396596356091
  H           1.26082086966385      0.07889043430086     -5.26836008603409
  H           3.01040813403293      0.21327521237781     -4.74250749080075
  O           1.09002308961884      0.52192316811950     -1.53092786916910
  O           2.86337734670000      0.85518434929976     -0.36076412828247
  Br          1.46991736179844     -1.44777643800836      1.94022911205135
  Br          0.09570638759907     -4.12712803586951      0.86561768651872
  Br          3.23944408667474     -3.82235463206678      0.74378411592253
