20
Coordinates from ORCA-job NEB E -49.562066920880
  C           0.49374186915678      0.69932746614676      0.51228539630886
  C          -0.67019047337835      0.66313751280711      1.42364555138714
  N           0.23685427620780      1.75823207439056     -0.50779115158527
  H           1.44545735793986      0.90482736688647      1.00800312693756
  C          -0.41707569327615      0.66098914087843      2.81276638587942
  C           0.51275058331740     -0.71863004874479     -0.26878644201273
  C          -0.79417535330977     -0.87396344060687     -0.91191434432741
  C          -1.91899116128463     -0.90121812256785     -0.07165258982054
  O          -1.82929487559133      0.44086357821884      0.94053396973986
  C           1.68406931013797     -0.76647745971975     -1.24641985818197
  H           0.71747273221413     -1.46431664815684      0.50613710816055
  H          -0.89609105355650     -0.63638512590157     -1.95738222936717
  H          -1.94166910376766     -1.61940169871274      0.74235585180635
  H          -2.88112413335140     -0.77730788195078     -0.55138830446651
  O           0.99518824908357      2.69160168958856     -0.50013632355903
  O          -0.73702667948198      1.60654570463940     -1.19851055731139
  N          -0.21136773588307      0.71485983247823      3.94143558355049
  F           1.57148311721786      0.11037775795882     -2.24565024211971
  F           2.84724295938817     -0.51274393322172     -0.63034749218019
  F           1.79274580821729     -1.98031776441027     -1.79718343883831
