20
Coordinates from ORCA-job NEB_reactant E -49.590387267390
  C           1.87285942925000     -0.35283122328600     -0.37467266287777
  C           1.45090225984040     -1.20838979900050      0.58846098806723
  N           1.76419404863694     -0.47681266354207     -1.78429202761506
  H           2.37803271795815      0.55280631174503     -0.07004129387951
  C           1.59554036621324     -0.71315657847973      1.93022969012067
  C           2.73871877390626     -3.52033682318242     -2.35216528086085
  C           2.40650126765968     -3.46798836664498     -1.07285002887659
  C           1.00590560005820     -3.26061611563267     -0.58392770093765
  O           0.96290318865906     -2.44252975351671      0.57611233995467
  C           4.14184328115677     -3.79812356730108     -2.79868876182827
  H           2.02718762525182     -3.39806202448399     -3.15510670893580
  H           3.15708613545719     -3.58397104270635     -0.30009224377661
  H           0.59443557249670     -4.21593275371487     -0.24115240779738
  H           0.37203896999978     -2.85361446678556     -1.38066275616342
  O           2.63022063204371      0.05072725509622     -2.44563647566963
  O           0.79750913306109     -1.06067849883415     -2.24452403292034
  N           1.70832451480006     -0.30651356984714      2.99206915980809
  F           5.05047100418621     -3.55217236171201     -1.84295463325220
  F           4.29943970279807     -5.09020566834268     -3.14558038205690
  F           4.48788577656667     -3.07349828982830     -3.86552478050267
