15
Coordinates from ORCA-job NEB E -26.375731587280
  C          -0.64638895369393      0.79509443324980     -1.01900048063337
  C           0.63046461905903      0.44499861428812     -1.44434026831296
  Br         -2.10339765946735     -0.32720311371154     -1.57621551596272
  H          -0.94294487092864      1.83476485173953     -1.00764911373260
  H           1.37363248809827      1.25646877157712     -1.45478438294025
  C          -0.49950207607783      0.27717126289361      0.98461172615116
  C           0.61586605219277     -0.56918457405120      1.04323662798550
  C           0.72990444163214     -1.61880608757218      0.14226688219422
  O           1.03687743838375     -0.75064919340621     -1.44144860189604
  O          -0.41588350662597      1.44923032394520      1.66513796095524
  H          -1.48321268061701     -0.18026516555701      0.95439889752175
  H           1.52062324407272     -0.12280765035366      1.43543224519005
  H          -0.16241525587110     -2.13986814155580     -0.17500534986227
  H           1.62521594753265     -2.21944543789570      0.14739923837457
  H          -1.27883922768952      1.87050110640993      1.74596013496772
