15
Coordinates from ORCA-job NEB_product E -26.421563824120
  C           1.65890171829540     -0.18552221630889      1.63315531302006
  C           2.93549331179482      0.10447541655858      0.89227115340309
  Br          0.82729881961668     -1.79812841962446      0.95048925598159
  H           0.95969848765829      0.63996885674199      1.46793552977439
  H           3.42813891089862      1.01610017145681      1.27937397110812
  C           1.91007693658892     -0.31287387888679      3.14965950244085
  C           2.98435035947508     -1.33108830166378      3.41780704998836
  C           2.74031252903519     -2.56413922683169      3.81729938344630
  O           3.38422615772114     -0.54701959222543     -0.00043489236378
  O           2.26851019447964      0.98230396777134      3.58415548904838
  H           0.96737821040290     -0.62986128712153      3.62573824998752
  H           3.99188009169400     -0.98122429147367      3.23450653421132
  H           1.73646255690352     -2.91768537950299      3.98681214300298
  H           3.53279894697466     -3.27472098674617      3.97285149054004
  H           2.50637276846115      0.94541516785667      4.51687982641079
