15
Coordinates from ORCA-job NEB_reactant E -26.428543984840
  C           1.61463638916994      0.00089953952733      0.27564844948659
  C           2.46227177963227     -0.47450368844877      1.17910448614187
  Br          0.01826046122008     -0.91046670541567     -0.15577919953545
  H           1.77655101744846      0.91291579818381     -0.26704873655208
  H           3.36855432485484      0.07531382837406      1.41486836630279
  C           1.86469519592572     -0.34141222647383      4.30455326109399
  C           2.92487626419437     -1.11199733443331      4.10707430548253
  C           3.14625860239532     -1.94234231777980      2.87394473250627
  O           2.26102506799731     -1.64370125741933      1.81895742027844
  O           1.63132376714335      0.41795891622113      5.39591759185671
  H           1.06737874889773     -0.24546684158668      3.58232848137015
  H           3.70076468489985     -1.19590115686775      4.85648678519490
  H           2.97566801477120     -3.00204614103711      3.09546667596159
  H           4.18885768458394     -1.82811007097531      2.53864186527659
  H           2.34057799686561      0.30175965813123      6.04133551513510
