22
Coordinates from ORCA-job NEB E -44.864107111740
  C          -0.09211335081505      0.31329416226211     -0.91322107058797
  C           0.36493161235934      1.31993841155098     -0.03523854016874
  C           0.76253725645404     -0.35628343150574     -1.93102137024513
  H          -1.09986793733320      0.48034654953441     -1.27551970617337
  C           1.83697168086074      1.43376355285311      0.34611483818095
  C          -0.65212965953085     -1.11870080712923      0.51426290193303
  C          -1.61800214299745     -0.31202800107479      1.15906906507576
  C          -1.24075196661550      0.73206122255630      1.95903866590894
  O          -0.47655080328700      1.95703765327147      0.64430360339825
  N          -1.02748594607996     -2.24468272392976     -0.14727100694880
  H           0.32581325912947     -1.19149245062176      0.97384207067272
  H          -2.63195610991040     -0.35759060352697      0.78551304882008
  H          -0.30221435865799      0.69624230263871      2.48799562678784
  H          -1.98266647087351      1.39570578869538      2.36845856290508
  Cl          2.04288129922663     -1.39334395696333     -1.25746330772836
  Cl         -0.23644374360138     -1.36749737329738     -3.01178953954070
  Cl          1.56845215419412      0.86621024293432     -3.00007527649313
  F           2.18599157625284      0.39886289076274      1.19216019041476
  H           1.99379641463852      2.36159445345956      0.90303325781529
  H           2.50527644464743      1.38135546548634     -0.51567697196602
  H          -1.91578654544724     -2.22520409799880     -0.62473832744179
  H          -0.31068266261362     -2.76958924995767     -0.62177671461868
