22
Coordinates from ORCA-job NEB_reactant E -44.895182660040
  C           1.50322621743591     -0.96858967114768      0.15445187084085
  C           2.17901237083469     -0.98993287529701      1.31400502983362
  C           2.06312708614832     -0.64012166745119     -1.17450566101226
  H           0.45674411154917     -1.22432791227116      0.13696982840938
  C           3.64038578607085     -0.62944939979472      1.46227717550241
  C          -0.10125325096544     -4.08046122375576      3.03194279762785
  C          -0.00190784624565     -3.05127620389299      2.18930168025839
  C           0.28526545392839     -1.65977327734172      2.65290689013308
  O           1.66733622821092     -1.30045923642382      2.50948573699022
  N          -0.43407684116299     -5.36187085343813      2.67382514552912
  H          -0.00202139516076     -3.92694627894642      4.09817676047587
  H          -0.09640182200256     -3.21676449888275      1.12676331877681
  H           0.11157469388792     -1.57740498139940      3.72795746493682
  H          -0.33511207672733     -0.92104264911162      2.13303724716503
  Cl          3.28818651360769     -1.86134180609661     -1.68756555370274
  Cl          0.77395873677103     -0.66150785474907     -2.39516674581263
  Cl          2.84695032001827      0.96526984123962     -1.24085711774686
  F           3.76998987658233      0.71197432696212      1.72720443676794
  H           4.21347953242383     -0.83779454744192      0.55687747385050
  H           4.05674312117298     -1.16089163205668      2.32358529961572
  H          -0.35678288004772     -5.58228883406209      1.69331889223821
  H          -0.15062393632985     -6.10109876464102      3.29410802932266
