22
Coordinates from ORCA-job NEB_product E -44.885936212340
  C           1.45316027365348     -1.25329651475619      1.22574875326794
  C           2.78336192749335     -0.86960704005361      1.89994707895408
  C           1.53565766511635     -1.37945407403029     -0.28841239788609
  H           0.78339678726106     -0.40432977289137      1.41376492847695
  C           3.95356458710925     -1.77640431065095      1.61237274431998
  C           0.83299680604317     -2.45365836779189      2.01988626634414
  C          -0.56873244240945     -2.74318036507475      1.54603054398208
  C          -1.65447894086247     -2.26208655868668      2.12068325872078
  O           2.82221657186002      0.04965269080532      2.66756995368823
  N           1.68863351636537     -3.62705397945994      2.01161618914202
  H           0.78880406757043     -2.09079068149992      3.05387990721781
  H          -0.63937364878074     -3.41846346934441      0.70388437053264
  H          -1.60112035515128     -1.59435081094481      2.96484237432894
  H          -2.64024088136077     -2.50833451366450      1.76658638505502
  Cl          2.24880513198316     -2.88298585237878     -0.88914889436872
  Cl         -0.08354926389116     -1.22116219275647     -1.02198801160899
  Cl          2.52720632853271     -0.01954706691602     -0.91924259933216
  F           5.02297751086599     -1.45962054098172      2.40152241663963
  H           4.28211119332628     -1.68844110206153      0.57218538585566
  H           3.65010997046611     -2.81059037829588      1.83089111464931
  H           1.55088511849336     -4.17452432937479      1.16925920135566
  H           1.48180807631579     -4.21667076919083      2.80782103066510
