17
Coordinates from ORCA-job NEB E -33.658456763110
  C           1.09403783004438      0.07783436344513     -0.36356686520791
  C           0.60365451719660      1.38843821586151     -0.24311997233332
  C           0.57380198487111     -0.67978688588924     -1.56750455956947
  H           2.15856353683118     -0.07461328469936     -0.21318948914828
  H           1.19154222701769      2.13237846465262      0.29784890416019
  C           0.22227355022029     -0.66964881062227      1.15116931312357
  C          -1.12942605764011     -0.48163227191830      0.85136812450146
  C          -1.57394720751133      0.86820170783564      0.73234995164847
  O          -0.66740859709399      1.60140948435148     -0.39162869592986
  I           0.92353002508476     -2.64462367761000      1.51745536006600
  H           0.66512002682978     -0.02141523639672      1.89690722508107
  H          -1.66688004199527     -1.25847522546508      0.32809158605571
  H          -1.36668402909489      1.51427691265524      1.58195781944104
  H          -2.58022645885352      1.00526878738261      0.35359100838799
  F           1.20825628237298     -0.20696379864293     -2.67190094163659
  F           0.85073906752540     -1.99908034755203     -1.53496264540375
  H          -0.50694665580506     -0.55156839738831     -1.72486612323633
