17
Coordinates from ORCA-job NEB_reactant E -33.698898664300
  C           1.95797057169960     -0.02009919013247      0.13274819897031
  C           1.26252465970821      0.13570309073582      1.25503290297682
  C           2.13991260315981     -1.34260745062657     -0.53276607502329
  H           2.42163834079220      0.82380913269165     -0.34778074596685
  H           1.15700483199785      1.11718852540124      1.70568180339780
  C          -0.59661530727560     -2.28115434214229      4.79596291016532
  C          -0.72005830944448     -1.79956229675387      3.57491066852795
  C          -0.00446057067261     -0.57110162482485      3.10485897326952
  O           0.65358004923845     -0.88614303909269      1.88871033143814
  I          -1.62684962316317     -3.98056473375147      5.46686022195721
  H           0.02382983539831     -1.83161375807999      5.55324257757170
  H          -1.34170501765806     -2.27766512512471      2.83259362323342
  H           0.72186386854961     -0.22997071066181      3.85478869654190
  H          -0.73720056038171      0.23270477972002      2.93338542460808
  F           1.62481876944900     -1.33342894612689     -1.79309040803648
  F           3.46053959736395     -1.63433177761958     -0.68638205702153
  H           1.67110626123865     -2.16966253361155      0.01864295338997
