17
Coordinates from ORCA-job NEB_product E -33.698850823690
  C           1.76044960933442     -0.93852661665158      1.42677426727454
  C           1.32900740599686      0.45724224573373      0.99845285707691
  C           1.37436517818074     -1.92593269024241      0.31741071127754
  H           2.86029264234409     -0.92781602869997      1.43495177935842
  H           1.17485625669557      1.15164288960435      1.84398140934118
  C           1.26957292318893     -1.21952301783021      2.85126973521354
  C          -0.20681008850931     -1.33420153134285      3.00287783649456
  C          -0.91268874695265     -0.49864048719100      3.74371309767572
  O           1.18370450206214      0.80374301245616     -0.13468921788045
  I           2.22137079022494     -3.00485572867893      3.68921944956447
  H           1.64312843129936     -0.41322433071074      3.48804083174626
  H          -0.68654006537505     -2.15504897413265      2.49210193181230
  H          -0.45771100020740      0.31943572877186      4.27963185288234
  H          -1.97850340703422     -0.60092208097261      3.84407649580394
  F           1.99759977314183     -3.11372263452480      0.46333278982004
  F           0.05037539111035     -2.19110982318657      0.29433012096488
  H           1.64813040449941     -1.51573993240179     -0.66787594842620
