24
Coordinates from ORCA-job NEB E -48.650528998430
  C          -0.08993979422308      0.68347645871523     -0.85235264934316
  C           0.33233453899322      1.65783409520124      0.09074444147623
  C           0.82900635993756      0.12209023769779     -1.89047749847212
  H          -1.07226045584244      0.87953380776337     -1.27014497529601
  C           1.79341996609905      1.77220202997682      0.49954219912621
  C          -0.74696075836617     -0.75611743880926      0.38880137039606
  C          -1.65854607779622     -0.00789641119070      1.16480848441132
  C          -1.22357481107611      0.99967940890754      2.00363911168513
  O          -0.54529947543259      2.21819053176686      0.79946088022993
  O          -1.27450704071161     -1.70349577099726     -0.42472986535160
  H           0.22112131842222     -1.00356043828479      0.82451030914786
  H          -2.68147781451098     -0.00764420363697      0.81795607211546
  H          -0.28871834255612      0.89401545649521      2.53486150960237
  H          -1.95461861320787      1.61873411178959      2.49783901479211
  Cl          2.18633859080195     -0.82164756571996     -1.23143022420994
  Cl         -0.04760253161259     -0.90976567858422     -3.04015953988711
  Cl          1.55388625974078      1.46890905496301     -2.85315063917716
  F           1.92364788832644      2.67538785178997      1.51629164196424
  H           2.41704781355362      2.12190192736442     -0.32943439041727
  H           2.17737256635871      0.81640318782924      0.87703973117707
  C          -0.58412749883053     -2.93525733766070     -0.50759616564511
  H          -0.68009079884111     -3.49070628787242      0.43076222937742
  H           0.47442679978068     -2.79777593329889     -0.73716185751734
  H          -1.06087808900680     -3.49449109420512     -1.30961919018461
