24
Coordinates from ORCA-job NEB_product E -48.685019422260
  C           1.53793921880756     -1.24869266491922      1.25198488148921
  C           2.86276776410663     -1.08933610608186      2.02326277317480
  C           1.64199860955419     -1.07765895903752     -0.25700877205807
  H           0.88924318481648     -0.44138926293752      1.61386420583176
  C           4.06217789944428     -1.82992446246917      1.47879767112753
  C           0.88300918942229     -2.57525494725666      1.74085913567556
  C          -0.49155360790980     -2.77452790578784      1.15698833898121
  C          -1.60170940395772     -2.38048932958324      1.75060072761078
  O           2.88075636694515     -0.46658306461186      3.04597535882145
  O           1.73596105954877     -3.65996505737331      1.44344550662437
  H           0.79580790755242     -2.47093934415297      2.83696647808760
  H          -0.50816975458089     -3.29746806895545      0.21166860794591
  H          -1.58736443335767     -1.86777939860858      2.69858333364551
  H          -2.56796631121017     -2.54201381362911      1.30647014422507
  Cl          2.31402330160024     -2.47021281437746     -1.10681911466434
  Cl          0.03792619508144     -0.72680504835844     -0.95329595931197
  Cl          2.66807054117844      0.35241348998150     -0.60277040998938
  F           5.11248891040035     -1.74243306417022      2.34730327190550
  H           4.39226123063644     -1.40494780909516      0.52551319374146
  H           3.81167450767811     -2.88918641289393      1.35137433899916
  C           1.42251005730067     -4.82922827229133      2.16504483211065
  H           1.52120303740376     -4.66023895401742      3.24365487954814
  H           2.13776336939878     -5.58358862483020      1.84507555351304
  H           0.40578116014026     -5.17285010454304      1.95076102296506
