24
Coordinates from ORCA-job NEB_reactant E -48.692622933980
  C           1.57860329679080     -1.00714017456648      0.16797876431951
  C           2.16117223308984     -0.85655591636856      1.36731770503229
  C           2.20096334279512     -0.72577331447416     -1.14500423692430
  H           0.56915037871623     -1.37806907695872      0.10023293597289
  C           3.55764499253341     -0.31719160798855      1.58290636065106
  C           0.08492649814990     -4.04467082984433      3.20299373373342
  C           0.19599112126774     -3.10001872350003      2.27368521301772
  C           0.26613447046289     -1.64729928879586      2.63123935443056
  O           1.59632725097725     -1.12979013590660      2.55033690556347
  O           0.02958121370197     -5.37767473062493      3.04135385492876
  H           0.00367304173786     -3.79650658415278      4.25348699720357
  H           0.29006343076098     -3.34637458407540      1.22861560343277
  H          -0.00707331013683     -1.50283317516716      3.67859501431375
  H          -0.39996220060123     -1.04620119514740      2.00149333195332
  Cl          3.58330673845592     -1.84105079574236     -1.46056065730196
  Cl          1.01666800003357     -0.99388626297807     -2.44173438150524
  Cl          2.81046217764219      0.94631054398421     -1.30266693150207
  F           3.51820232825955      1.04819375372304      1.72096937034087
  H           4.22125444112858     -0.53962243078248      0.74500147434718
  H           3.95706438586920     -0.71681984916849      2.52003925401672
  C           0.13333674591758     -5.88823480444116      1.73012860337436
  H           0.08171772885336     -6.97102334768091      1.82464343920695
  H           1.08458611877459     -5.60499452133000      1.27011840749630
  H          -0.69109442518047     -5.53547294801280      1.10352988389808
