21
Coordinates from ORCA-job P E -28.089757333120
  C          -1.61178946725700      0.20936621345161     -2.20544833237094
  C           0.04496859310976     -1.65439145079784     -1.06838122234507
  C          -1.40340703867955     -2.00110334344206     -1.22423858885096
  C          -2.20374877954041     -1.09952364710521     -1.76987283995421
  C          -0.76444373602304      0.77636888354058     -1.05072543895535
  C           0.14305580775429     -0.27793484400020     -0.40864733939749
  H          -1.75030330068642     -2.96124720732459     -0.87796149990435
  H          -3.26308754052819     -1.24478741835194     -1.89545214860101
  N          -2.65036366418082      1.16122110098040     -2.56117152246896
  H           0.57794747279745     -2.39454659108398     -0.47062835685171
  H          -0.93507918729151      0.01332665635205     -3.06540825240714
  H           0.51913126552151     -1.61194418393042     -2.05492635669481
  H          -1.45733548757331      1.16338157986737     -0.30056273505347
  H          -0.07976267378999     -0.37194845932215      0.65545437579998
  H          -0.17911846992755      1.61867491423971     -1.42416202316689
  Br          2.03383867946361      0.30150478185335     -0.44669808353144
  C          -3.22023158934062      0.92614862330720     -3.87235421926675
  H          -2.27352309773303      2.10390104921778     -2.52590710275467
  H          -3.69483359395599     -0.05413790842372     -3.88713671918605
  H          -2.47456873037264      0.95661550659950     -4.68235998535451
  H          -3.97940546176654      1.68153574437255     -4.06527160868419
