21
Coordinates from ORCA-job R E -28.011968095580
  C          -1.26214225713895     -0.17707695175789     -3.04365818754407
  C           0.11130249569876     -2.43621777167691     -1.57211727214681
  C          -1.19827315738782     -2.19646426968324     -1.62002018483598
  C          -1.86762168804303     -1.09556717798150     -2.27184331286083
  C          -1.25084431365363      0.98616937947434      0.10284203056935
  C          -0.02119327065390      0.53574624889874      0.22950692367748
  H          -1.86323108662358     -2.88566078827500     -1.11196339334433
  H          -2.93424576553973     -1.03925356878967     -2.10994063661857
  N          -1.84245716571391      0.93661980532083     -3.59352427844243
  H           0.50286237008533     -3.29527461223110     -1.05486758515190
  H          -0.20036742377679     -0.23943527590520     -3.23282221720388
  H           0.83885025113331     -1.79988114005011     -2.04527591086378
  H          -2.03711508152446      0.61315191960833      0.73645336154326
  H           0.29346103607757     -0.21135988395319      0.93897357833272
  H          -1.51716879855655      1.72879246310114     -0.62929791199262
  Br          1.39461103218228      1.15080261400989     -0.85766107873601
  C          -3.27331236724544      1.11265683398971     -3.60996518662395
  H          -1.35652168054850      1.32628975807290     -4.38614898829435
  H          -3.65143381719645      1.09490899823932     -2.58718781952502
  H          -3.78946370626223      0.33220099159738     -4.18284169738893
  H          -3.50563560531229      2.08165242799123     -4.04761023254934
