21
Coordinates from ORCA-job TS E -27.996380804700
  C          -0.00542626026065      0.16476338270058     -0.92840584719207
  C           1.49828465605094     -1.70157126437580      0.66098014642948
  C           0.18950529433340     -1.91131848651360      0.32458214102907
  C          -0.55031656204510     -0.99912407147336     -0.43971696770112
  C           0.48861410353373      0.97711580538790      1.23697161942391
  C           1.31401517267915      0.09552092336890      1.86359669146329
  H          -0.36166724395623     -2.69704966905076      0.82427851665081
  H          -1.61622656610045     -1.15334199512760     -0.51362831025045
  N          -0.71271920669169      1.16022525817134     -1.52870045785272
  H           1.99776745890724     -2.39623361669488      1.31870072536533
  H           1.06073032293798      0.24596013338771     -1.06794438376367
  H           2.15399675025110     -1.17133692713360     -0.00756736779707
  H          -0.56371032974272      0.96530628230203      1.45307854056849
  H           0.99339443155999     -0.50985192629562      2.69451043841036
  H           0.87522526558274      1.83715052974710      0.72249483316644
  Br          3.18435754973030      0.51320032081658      1.98328752460682
  C          -2.14859371303859      1.18145111993906     -1.61177173936078
  H          -0.21167711931437      1.81538228774116     -2.10232114766916
  H          -2.57836275591899      0.97834334498799     -0.62962088466632
  H          -2.53323081348699      0.43701926933500     -2.31894881072431
  H          -2.47396043501079      2.16838929877985     -1.93385526013632
