24
Coordinates from ORCA-job NEB E -44.995095111150
  C           0.36785974671243     -0.89150669264171     -0.58886750202970
  C          -0.87115103709351     -0.77969790865538     -1.25978904709184
  C           0.46398203179257     -1.79777600925626      0.60272475021049
  H           1.25575832976754     -1.00921478276999     -1.20236246296772
  C          -0.85256989203279     -0.50020805045939     -2.74020666192660
  C           0.53930311874550      0.96696200607621      0.12394364705074
  C          -0.67458310488572      1.10975195738877      0.82285518865836
  C          -1.87527886529703      1.06193337448692      0.11777081741778
  O          -1.93277290832805     -0.57963550344361     -0.58795634434088
  O           1.76474962271147      1.05416574032348      0.69211762755272
  H           0.59619198249934      1.40143718050442     -0.87267728853484
  H          -0.69813153950702      0.88385748787114      1.87695787701195
  H          -1.94330307661541      1.56788849931885     -0.83621855571801
  H          -2.79393734724981      1.05343873819974      0.68353554288311
  F           1.70884694457407     -1.82567369963495      1.11591310053636
  F          -0.35314777587947     -1.53504494828434      1.62626024077897
  F           0.20441811579834     -3.07473029632425      0.24434263007752
  H          -0.39321537837642      0.47124466940810     -2.93093429917637
  H          -1.87041149697284     -0.48731829116839     -3.11959938830784
  H          -0.27863104915028     -1.25731443604216     -3.26706322721197
  C           1.86997636236327      1.03962105167207      2.10435203591822
  H           1.39926584186220      1.92935408402078      2.53308011612693
  H           2.93765699724011      1.05174892012488      2.31237308112432
  H           1.42912437732151      0.14671690928509      2.54944812195828
