19
Coordinates from ORCA-job R E -32.161063360110
  C          -1.39391161763951     -0.13899862405373     -2.75941313481588
  C          -0.09142642533219     -2.71552507790148     -1.87651124968276
  C          -1.39840617755831     -2.51564529636410     -2.02527964214257
  C          -2.02120435701137     -1.28988033490987     -2.48401826104477
  C          -0.70740698102032      1.91668386887123      0.22962482273015
  C           0.18414263342676      1.03730667336494      0.63754928018196
  H          -2.08659385557516     -3.32327278483618     -1.81015095167316
  H          -3.10309540184542     -1.34543761722061     -2.56778279625143
  C          -2.07017155818501      1.11017842793235     -3.16365525075875
  H           0.29284261983718     -3.66146566984242     -1.53617032374167
  H          -0.33101099791595     -0.03122970127185     -2.61052203414423
  H           0.63607843424820     -1.94748463487660     -2.07276350743941
  H          -1.43652306756478      2.29987962455370      0.92313348223163
  H           0.25625541599142      0.66280925606430      1.64759981915864
  H          -0.75253556423434      2.27626789929368     -0.78451841502591
  Cl          1.38185913863195      0.37627065120381     -0.40256644531987
  O          -1.60911315492202      2.19746736317604     -2.93454570490972
  O          -3.24895486880409      0.99153369182468     -3.80411491991628
  H          -3.48517421452703      0.06879228499212     -3.96569476743596
