19
Coordinates from ORCA-job TS E -32.145144738990
  C          -0.19857105813354      0.35504402278384     -1.04744055282581
  C           1.15978425762531     -1.70780704010937      0.38020816505507
  C          -0.13094747289924     -1.84169960762124     -0.01815048969839
  C          -0.80044175530587     -0.84000325651598     -0.74671849422692
  C           0.17293455187030      1.09628443224552      1.02600449582337
  C           1.01288627470800      0.24305800872651      1.66419912524386
  H          -0.73115505244270     -2.64891953225346      0.37944725082962
  H          -1.86557502016371     -0.97378046881920     -0.89843347876953
  C          -0.90304992538350      1.49251411864058     -1.68573236858711
  H           1.59848035826078     -2.42760852720230      1.05140178905321
  H           0.86965564678248      0.40011189322867     -1.18917926910155
  H           1.85722715781404     -1.10541408497216     -0.17101156935732
  H          -0.87533719303861      1.06619443951066      1.26713648490864
  H           0.69076956816849     -0.45490257251848      2.41749104251541
  H           0.54585424807006      2.00092157146847      0.57908145500239
  Cl          2.71572614051329      0.56643176495743      1.70165699207354
  O          -0.33619552679606      2.31319999300146     -2.35495396565039
  O          -2.22759838343705      1.59120083578735     -1.45762097160750
  H          -2.55444681621246      0.87517400966170     -0.89738564068058
