17
Coordinates from ORCA-job NEB E -40.710324339610
  C           0.64413055779901      1.15796080602796     -0.08557613793676
  C          -0.70329883720253      0.79313229762458      0.14986216785189
  Cl          0.97349626090256      1.92493050013174     -1.62893489349769
  H           1.17322390403586      1.68195465948847      0.70661504270902
  C          -1.26534758402694      0.79338217351702      1.52380859699839
  C           1.48298626760066     -0.48529015591251     -0.24320781698133
  C           0.73862734260237     -1.13122206964851     -1.24229244076438
  C          -0.66503330591789     -1.32997294995671     -1.01225967176345
  O          -1.32503894318468      0.06182215122804     -0.73816322903263
  Cl          3.15896841770593     -0.14517878278124     -0.58879492080529
  H           1.37790950013041     -0.82374184402426      0.78535505087203
  H           1.10020006712140     -1.09826020698338     -2.25870715977249
  H          -0.90905905191512     -1.88316587013407     -0.10443220799669
  H          -1.22205515970970     -1.70116039910552     -1.86621236272040
  Br         -0.86655951513103      2.41106345612655      2.50268304853693
  Br         -3.17389536517504      0.52830846166422      1.44726629400792
  Br         -0.51925455563526     -0.75456222726237      2.65299064029493
