17
Coordinates from ORCA-job NEB_product E -40.744440385470
  C           3.01621634697849     -1.28022552949528      0.91302619314139
  C           1.53721294394102     -1.24970182950505      1.20993386663645
  Cl          3.19556866901875      0.09579030289408     -0.22938297864985
  H           3.63818811929591     -1.05214020104820      1.78187028390485
  C           1.15884622646291     -0.60629773260335      2.53583217033278
  C           3.44443288712243     -2.60313239042950      0.28557682659863
  C           2.72777731111547     -2.94764532861830     -0.97439602140306
  C           2.17440740247395     -4.12684239570910     -1.18951765286938
  O           0.68655265185873     -1.70474240514191      0.50457226807427
  Cl          5.21353979804623     -2.49347978757461     -0.05388322911443
  H           3.32924578836518     -3.39564678805897      1.03227918145664
  H           2.71349313907665     -2.17475355388570     -1.72834906383499
  H           2.18906791831603     -4.90848964451976     -0.44788437234970
  H           1.67648645978316     -4.35154177979654     -2.11560693903075
  Br          2.04932375941823      1.07001565484646      2.88401293919081
  Br         -0.74939565526625     -0.38002237205081      2.64305280587980
  Br          1.73553623399312     -1.93754421930345      3.85686372203654
