17
Coordinates from ORCA-job NEB_reactant E -40.745051172880
  C           2.30352330297304     -0.32103768965138      0.41138584858070
  C           1.70714937947027     -1.31905520631689      1.06406222220987
  Cl          2.99553576299868     -0.36841239345524     -1.16140886504800
  H           2.40174983610332      0.65042619797509      0.86788983167349
  C           1.14149100874145     -1.13972528312146      2.44186505048141
  C           4.18637601587780     -3.33423035160310      0.37818304736310
  C           3.34923872493063     -3.32543812356372     -0.64555540248031
  C           1.86484489751341     -3.15046846825004     -0.51063137981497
  O           1.45311973441959     -2.60620399386100      0.72928557929977
  Cl          5.87891957684299     -3.53224827466769      0.18447569373935
  H           3.88164066160787     -3.22221073028611      1.40757133947084
  H           3.70349824581625     -3.45830678429835     -1.65624492628040
  H           1.37375340518864     -4.13042606913564     -0.53625333050650
  H           1.47444844699375     -2.55094765646242     -1.33934791595688
  Br          1.31920391275289      0.61061176177818      3.21457737709963
  Br         -0.76010271734995     -1.58865137140838      2.38713793735015
  Br          2.01900980511936     -2.41627556367181      3.63360789281877
