18
Coordinates from ORCA-job NEB E -41.417355342210
  C          -0.24280459777481     -1.40416006716626     -0.12775247202659
  C          -1.57132477761216     -1.02097896687552     -0.38409872232777
  O           0.03490294987367     -1.74883910875124      1.15167938709977
  H           0.28279505638730     -1.95409816077458     -0.90448079525897
  I          -2.09710729079878     -1.02384529905331     -2.49432398129179
  C           0.50507695315493      0.46358146111290     -0.32254206710563
  C          -0.22661486432668      1.13522814142421      0.66178090909994
  C          -1.60083736278251      1.33090065252600      0.45886697653424
  O          -2.23320983275760     -0.29062835700750      0.37820837114779
  C           1.99641742518939      0.34901496808981     -0.19849529058015
  H           0.22201536031778      0.62360195218059     -1.35939385561621
  H           0.15718808127308      1.15073678977905      1.67066681364922
  H          -1.93469654234030      1.63782707213793     -0.52638243980615
  H          -2.18207465267114      1.74311628556480      1.27031355576828
  H           0.95651079855332     -2.02163040355961      1.24657764644998
  Cl          2.71197729723243      1.94363018100316     -0.62601547569422
  Cl          2.55096981705712     -0.06251944727165      1.43866902408507
  Cl          2.67081618202496     -0.85093769335878     -1.33327758412679
