18
Coordinates from ORCA-job NEB_reactant E -41.440129747350
  C           1.55879598942071      0.06475808144931     -0.16249312937132
  C           1.34974127721929      0.93870739076699     -1.14414780035113
  O           1.66183832088598      0.43172658968237      1.15700503497480
  H           1.64947485872328     -0.98451021452465     -0.39732822042070
  I           1.20601167222807      0.19984938389082     -3.12138359231295
  C           4.25649000301379      4.00035588797774     -0.53170269206589
  C           3.45281903418982      2.94904582036199     -0.52057871390043
  C           1.99500743612836      3.01585974034389     -0.19055190482095
  O           1.20631842665262      2.27897316904521     -1.11358719372693
  C           5.71198874494621      3.97014343814983     -0.82565319024313
  H           3.88787290435282      4.99010231342087     -0.30054291126453
  H           3.82836686679591      1.96302658817539     -0.75789317886505
  H           1.61804068448459      4.03813363891147     -0.25583716974722
  H           1.83861419329015      2.63266435072477      0.82627151410267
  H           1.83544379939557     -0.34546499659161      1.69622494808883
  Cl          6.06527064858725      5.07631211632165     -2.18641214349535
  Cl          6.61076723965412      4.55666234072169      0.60997636033761
  Cl          6.32663790003146      2.36695436117224     -1.24126601691833
