20
Coordinates from ORCA-job NEB_reactant E -48.482984072090
  C           1.50851900848091     -0.05768393272326     -0.32197800411050
  C           1.51991494114521     -1.37757794036616     -0.14119066186474
  F           2.12930430985617      0.57815237342562     -1.33436064603226
  H           0.99545652305773      0.62747177578058      0.33173787903349
  C           0.77004385051854     -1.95528478329339      1.04313491266785
  C           3.65053433803024     -3.46465340983411     -3.85998526192113
  C           3.41206583563837     -3.28085706971532     -2.57129599785327
  C           2.85902161935994     -2.01256223216180     -2.01036022202786
  O           2.10591826791307     -2.35452023982559     -0.85973102433778
  C           4.23280996194493     -4.67591291871067     -4.47515076882511
  H           3.43443216711887     -2.68490217445784     -4.58134143409110
  H           3.61061605838488     -4.04497580745613     -1.83245311100181
  H           2.23354013377266     -1.49154146027661     -2.74454527926707
  H           3.69107155027272     -1.34945698619101     -1.73056239106420
  F          -0.20635533550822     -2.79031285140867      0.62538023410437
  F           1.59785398235336     -2.68704462094858      1.81884041361213
  H           0.30904854097049     -1.17877435929086      1.67152282980354
  Br          2.99278639809626     -5.37369046863344     -5.83998624040930
  Br          5.91621491609560     -4.18945789098611     -5.38988943016011
  Br          4.62810293249823     -6.11411500292667     -3.23768579625513
