17
Coordinates from ORCA-job NEB E -29.456704999830
  C          -0.53863824970366     -0.27263168929335      1.39249836037644
  C          -0.78930855373459      1.08506941298133      1.33528856350450
  I           1.22874298689663     -0.86314350301160      2.37498382300628
  H          -1.36177482516144     -0.94561598364745      1.58524626953505
  F          -2.11047309824909      1.39306289393654      1.06288249368791
  C          -0.16144559823496     -0.49021570771515     -0.63283290356295
  C           0.81876094563428      0.47447884563834     -0.79938103886743
  C           0.49391799248937      1.83729808008576     -0.62552386716725
  O           0.05404849549879      1.96053364783261      1.02750822640746
  C           0.15108080538622     -1.94522806934058     -0.80520200104434
  H          -1.17970037029046     -0.22124127468374     -0.89849593366379
  H           1.85356562823708      0.17815682265363     -0.69417325307706
  H          -0.43762516820433      2.19319653202185     -1.05263316212382
  H           1.29656796994020      2.55989400024038     -0.66758777258882
  H          -0.57328602917450     -2.57339947500103     -0.29208376417650
  H           1.14886869582292     -2.18180839268558     -0.44348973524240
  H           0.10669837284754     -2.18840614001197     -1.86700430500329
