19
Coordinates from ORCA-job NEB E -45.055076937650
  C           0.03786078959437      1.08015173655822      0.78846912322508
  C          -1.28211957629102      0.64834455756694      0.71163054548478
  H           0.34171102996008      1.89861497585560      0.15272142378925
  H           0.49790163013762      1.06505849894445      1.76939472701798
  N          -1.78075938167792     -0.19283963038471      1.79034205120865
  C           0.85938025308309     -0.36306108423170     -0.23714721244220
  C           0.09135369173599     -0.39206908935870     -1.39452602891444
  C          -1.32539016074528     -0.66069693753808     -1.27241747403240
  O          -1.88104535630706      0.50259852487593     -0.44189244688523
  C           2.30812211912589      0.04586118961015     -0.36798245250772
  H           0.73586860280161     -1.13740606962427      0.51335222169677
  H           0.43030424123091      0.16995142812377     -2.25341278176075
  H          -1.59230626470201     -1.55504795067989     -0.70686475481280
  H          -1.88378690433023     -0.59968695894906     -2.20084915683178
  O          -1.24397570803917     -0.08845865075808      2.87483848951409
  O          -2.68938943263649     -0.94879333561104      1.51841505584460
  F           2.46443706084183      1.13849647492402     -1.12747199963322
  F           2.86891113445753      0.31260589194089      0.81634141630585
  F           3.04292223176027     -0.92362357126442     -0.93294074626651
