19
Coordinates from ORCA-job NEB_reactant E -45.076486467500
  C           1.37346946605649      0.09520668935040     -0.08958724788267
  C           1.54442018368769     -1.16725755431814     -0.47311407673083
  H           1.00580600628882      0.83477749904258     -0.77597113521202
  H           1.58424566147903      0.38619415594529      0.92282873864814
  N           2.00492982761114     -2.13157746541642      0.52971336630427
  C           4.26989566636055     -3.40989220549628     -1.82110873476099
  C           3.41472651250273     -2.47413452659496     -2.19813701506859
  C           1.93683470759208     -2.68812417634540     -2.28784038698313
  O           1.20366934506944     -1.61750871775743     -1.69207052809605
  C           5.74822519818311     -3.17891243005510     -1.76507367836527
  H           3.97052367985692     -4.41016958247164     -1.54623440916790
  H           3.75753786752166     -1.47751906460320     -2.44798863341267
  H           1.64817303417113     -3.64982686801415     -1.85272266454945
  H           1.62437546401421     -2.65849443489038     -3.33672186516174
  O           2.64479963957180     -1.69852363124159      1.45871874735130
  O           1.70207464285768     -3.29411407684915      0.36662464133189
  F           6.09170534494487     -1.89953549986455     -1.96841146845395
  F           6.26898917069672     -3.53772391587424     -0.58391388630294
  F           6.39589858153391     -3.89976419454564     -2.69928976348736
