20
Coordinates from ORCA-job NEB E -32.228610148620
  C           1.15673631994356      0.14571501551566     -0.83881955371982
  C          -0.23498324398153      0.14142918428639     -1.03660635578243
  Br          2.21930162953697     -0.97392504490583     -1.99328476343568
  H           1.65602726778562      1.09963782176656     -0.70574071944546
  C          -1.06356052695535      1.37513058658662     -0.75944670725358
  C           1.24382174728444     -0.75585122120722      0.84206659392809
  C           0.59991491688759     -1.97213650300465      0.59240689042626
  C          -0.76374027319611     -1.90747591347606      0.19543065283549
  O          -0.82619079779201     -1.00734673159710     -1.16582792576293
  Br          3.10218511757583     -0.80546165463908      1.31306102548674
  H           0.74440231736854     -0.01128968777264      1.44965408413314
  H           1.19569708669244     -2.80375451177885      0.24425816515487
  H          -1.42969285318233     -1.33184195597236      0.83309785334186
  H          -1.20745965556522     -2.83999173985688     -0.13063142091830
  C          -0.89435647665870      1.98288442933887      0.63500852148464
  H          -2.10865950305221      1.09950660740773     -0.91214992346353
  H          -0.80244164834546      2.13122442462828     -1.50488408558678
  H          -1.20894903950487      1.28560762583164      1.40868478118854
  H          -1.51483629217025      2.87201302436557      0.71553195119520
  H           0.13678390732905      2.27592624448337      0.81819093619370
