20
Coordinates from ORCA-job NEB_product E -32.282011202310
  C           2.11127010944420     -0.20520843951607      2.20822840370258
  C           0.81820176475974      0.50980154346518      2.60241847982118
  Br          1.80815778860772     -0.73418884300057      0.32947452755238
  H           2.96877373240908      0.46928554141731      2.18403980704028
  C           0.79508153606253      1.97917845441775      2.28529061087213
  C           2.38205863604353     -1.43429223759813      3.04912409227607
  C           3.50949075994933     -2.26750889450915      2.55629287453511
  C           3.41429599770929     -3.56961719675331      2.35878225059132
  O          -0.08397259465674     -0.08848227161243      3.12222619174972
  Br          2.83108462274137     -0.74340581102636      4.86241815728894
  H           1.46600109344325     -2.01520561713479      3.18122361746298
  H           4.43420861198207     -1.73658901653862      2.37130951074695
  H           2.49972857660764     -4.10830784136563      2.54588377595274
  H           4.24588728700170     -4.14553891446492      1.99333310130218
  C           1.47761486628060      2.74126981691581      3.42681347403794
  H          -0.24347332764842      2.30233208032386      2.20361595049754
  H           1.31026762741410      2.17338757304820      1.34291535176012
  H           0.97124584451040      2.54122671238427      4.36792425502243
  H           1.43696883331744      3.80901465420527      3.22962567608553
  H           2.52020823402116      2.44904870734233      3.53185989170188
