18
Coordinates from ORCA-job NEB E -29.545637772320
  C           0.65309444456724      0.31137863177084     -0.24052641921154
  C          -0.69459299838937      0.33199948851477      0.10723525113923
  Br          0.98171995086063      0.63150563089204     -2.61150540802929
  H           1.23568110169252      1.19685309416965     -0.03878515321035
  O          -1.34636967096373      1.40456228156555      0.59303493368888
  C           1.37364810712927     -1.03633827496758     -0.01901598383460
  C           0.44395285351371     -2.06436113601702     -0.52276688493786
  C          -0.87762221450412     -2.05521166433737      0.08440373475386
  O          -1.50367524258572     -0.70660413597240      0.04946829152002
  H           2.31836424010516     -1.03214849427715     -0.55828944411005
  H           1.58499855045348     -1.13878591069868      1.05132169343465
  H           0.55052920761856     -2.41293125132457     -1.53482268207676
  H          -0.85249359151749     -2.29651209756520      1.15300627923065
  H          -1.59912115985265     -2.69652220286005     -0.41916705841601
  C          -0.67795072920259      2.64474251544146      0.70009942093481
  H          -1.45011701364778      3.36168564614670      0.97251615805846
  H          -0.22519262896730      2.93828856194456     -0.24960820769934
  H           0.08514679369018      2.61839931757443      1.48340147876525
