18
Coordinates from ORCA-job NEB_product E -29.626289603460
  C           3.38963733195960     -0.44752593351905      0.68241736790864
  C           2.20619587629564      0.04842493458615      1.49437536593036
  Br          2.77652567948590     -0.82431417479049     -1.12259719252648
  H           4.14042221963879      0.34158667313086      0.59937604772287
  O           2.63530742468749      0.52678576480052      2.66520507322279
  C           3.98650102301795     -1.69495075030088      1.34170255682123
  C           2.92885964781539     -2.72514476655151      1.59898916311301
  C           2.55605644317958     -3.11326829738961      2.80295508825574
  O           1.05921692065413      0.00699769154502      1.15607384683033
  H           4.75829707867800     -2.10673476665933      0.68523015787534
  H           4.45104219141177     -1.38789750418419      2.28211802775274
  H           2.45292315944936     -3.13114118260545      0.71630388470167
  H           3.01537548662462     -2.71836894332076      3.69553804220909
  H           1.78323076010541     -3.84771177725454      2.94878686812193
  C           1.62291001872682      0.97818843893674      3.55782040701810
  H           2.13945017123559      1.33408074432427      4.44510562439529
  H           0.94829437150828      0.15689161744809      3.80638540922656
  H           1.04565419552568      1.78290223180417      3.09901426142079
