18
Coordinates from ORCA-job NEB_reactant E -29.586912922230
  C           2.08577753059500     -0.16135728685637      0.01858513998325
  C           1.95601771440087     -0.00252412761645      1.34133971595938
  Br          2.10348961276789     -1.76385937034972     -0.98466935169200
  H           2.14252749403181      0.72042095297842     -0.59336705976410
  O           1.89933078054650      1.29455017889132      1.75046185151432
  C           4.56078082792894     -3.04534677613218      2.85372454385237
  C           3.76919989659463     -2.33603565997619      2.07297133469134
  C           2.28837217237954     -2.22138297787574      2.27340652727435
  O           1.84847688256516     -0.86984025959427      2.36442258607149
  H           5.61853993648374     -3.11886654945868      2.67020511838414
  H           4.18081679552159     -3.59465619751075      3.69942462590084
  H           4.16944705017854     -1.79058221907774      1.22985217864607
  H           1.99796699701401     -2.65177664783659      3.23517233458024
  H           1.75188649881073     -2.75096417060408      1.47877597757508
  C           1.81503501052256      1.54151666745570      3.14178304756138
  H           1.81429668450767      2.62517895825714      3.23650012321331
  H           2.67207098872716      1.12037108272867      3.67295657126136
  H           0.89486712642367      1.12885440257751      3.56155473498715
