17
Coordinates from ORCA-job NEB_reactant E -30.044405485500
  C           0.97421632433842     -0.36099461895691     -0.77813532034246
  C           2.08709539622852      0.07130331824716     -1.37002222243012
  Cl         -0.50134063857618      0.50700694787625     -0.92985271296364
  H           0.93640354744925     -1.24665524963484     -0.17159239782647
  Cl          3.52565349825950     -0.88501511295301     -1.18311469872517
  C           2.15381593813519     -0.28007572294451     -4.49575172541717
  C           3.18148422808046      0.47933684988611     -4.15661709341390
  C           3.21708823887129      1.41116480479406     -2.97947523719780
  O           2.16192548210297      1.21613268316238     -2.04945395569611
  C           2.13994606279691     -1.20643689551628     -5.66262861707515
  H           1.24345859439715     -0.25706060971865     -3.91100877088434
  H           4.09320991767052      0.47244862492329     -4.73788606928099
  H           3.08938886277728      2.44726347156405     -3.31056110908378
  H           4.18584949095516      1.32897910808342     -2.46958377579004
  H           1.97709681190115     -2.22947524997965     -5.32481433459955
  H           3.07737545621776     -1.16103891312548     -6.21098784342944
  H           1.32223278839467     -0.94838343570739     -6.33441411584386
