20
Coordinates from ORCA-job P E -29.377683272010
  C          -1.34972826883026      0.65246828476028     -2.08585653615342
  C          -0.83655820950209     -1.92246626711602     -0.72101233678273
  C          -1.54144735443361     -1.81125360816027     -2.03727890413264
  C          -1.78038014329799     -0.66501716053428     -2.64971622137310
  C          -1.11485455064822      0.56536901306596     -0.58270419460135
  C          -0.17165679903214     -0.60406228274832     -0.29684592690672
  H          -1.86238790659420     -2.74502865299730     -2.47782335085834
  H          -2.29723676675306     -0.62047854647582     -3.59647279236618
  F          -2.32212534539360      1.60763459377854     -2.34665674238595
  H          -1.55780342408460     -2.22100830188915      0.04612103577209
  H          -0.44210901875579      1.00671753925171     -2.59388128133602
  H          -0.08642496213988     -2.71483840042794     -0.77817044330231
  H          -2.06883597024227      0.39925303657681     -0.08054471273703
  H           0.04570022176657     -0.64306770895087      0.78449395218700
  H          -0.67999292785718      1.49712873052370     -0.22082226096482
  O           1.03317529972989     -0.34640339152358     -0.99619686184596
  C           2.15281441091418     -1.05549552936904     -0.53479743655573
  H           3.00558093514099     -0.67121836465038     -1.09115450490433
  H           2.06797865560018     -2.13334007663612     -0.71462498955775
  H           2.31341212441308     -0.88975290647791      0.53823450880530
