20
Coordinates from ORCA-job R E -29.288090237430
  C          -1.35907853516527      0.07854201412172     -2.81833605824919
  C          -0.51336300047260     -2.72581398566283     -2.12984387568635
  C          -1.70136355551152     -2.17879376568259     -1.89753568323626
  C          -2.15530190220846     -0.89283950746581     -2.39149501474328
  C          -0.65580563552767      1.59700976498915      0.03536164931764
  C           0.03926199558439      0.49891929294008      0.27833027483890
  H          -2.43041560823369     -2.72231389205975     -1.31000154476295
  H          -3.22265260753080     -0.72014119258933     -2.38931265216204
  F          -1.86203082376000      1.23953615020616     -3.26733046379777
  H          -0.25265936956618     -3.69201603827878     -1.73222387204245
  H          -0.28058445025391      0.07245177492824     -2.83442605047536
  H           0.23132977861358     -2.23938349018366     -2.73493197308779
  H          -1.46582107256658      1.88625016303536      0.67621823952825
  H          -0.17571422819044     -0.14011097143010      1.12884554587910
  H          -0.43445932400860      2.22524809787884     -0.80743318225921
  O           1.06391649515599      0.09151901148835     -0.52003086752452
  C           1.75743516642477     -1.05116870165884     -0.08285236805962
  H           2.23242962362532     -0.88238446010202      0.88970303886464
  H           2.52776307059043     -1.24847998124198     -0.82640048993962
  H           1.08992398300126     -1.91691028323221     -0.01340465240211
