20
Coordinates from ORCA-job TS E -29.273474712980
  C          -1.11027324702704      1.07810215197639     -1.46771129066083
  C          -0.09324638946077     -1.43982505287401     -0.59425337304216
  C          -1.40985836929023     -1.22503999068732     -0.81891944718182
  C          -1.92414321278248     -0.00922552729114     -1.31115242889751
  C          -0.47259780476615      1.45539487426528      0.50992908935936
  C           0.33143556656301      0.45015136526311      0.96238196364024
  H          -2.12816918954180     -1.96188126410597     -0.48511065866525
  H          -2.99228860378548      0.14767791617482     -1.30866870211279
  F          -1.67053513817938      2.25608813005814     -1.81636707838656
  H           0.22683427031998     -2.35751653660877     -0.12719758633513
  H          -0.08695420990616      1.02847592570809     -1.81023388863430
  H           0.67216238318176     -0.86408342666784     -1.07915470137775
  H          -1.46667283432522      1.53785203927861      0.90957344973553
  H          -0.01814229381261     -0.32087351287729      1.63365905904922
  H          -0.00847424361829      2.36635893689603      0.17323140836034
  O           1.67554760698954      0.52634047953907      0.75242371981328
  C           2.45530269706304     -0.47604290649784      1.35520055079562
  H           3.49285549740327     -0.23580877444234      1.13042010449303
  H           2.21438062678944     -1.46425618257298      0.95116966539167
  H           2.31283688818554     -0.49188864453405      2.44078014465581
