18
Coordinates from ORCA-job NEB E -33.761172026630
  C           0.50163112974251     -0.72155288625015     -0.23325828535067
  C          -0.86192280374449     -0.61332257512095      0.02938590220226
  Br          1.70787450695486     -1.37478062752746      1.55851584462246
  H           0.77567535105518     -1.55308475365155     -0.87319960732325
  C          -1.84867989654920     -1.64401289298525     -0.41695551466776
  C           1.18209047618993      0.64268515776269     -0.61259407379434
  C           0.70616058119698      1.64432656607587      0.35253722301278
  C          -0.59657615342152      1.51879689530032      1.01402766329875
  O          -1.41675988102526      0.43984121650065      0.66827403086044
  O           2.57723395979256      0.62014854700430     -0.59062591594880
  H           0.83515764212754      0.84504849614576     -1.64487264985295
  H           1.47206453862587      2.19489488774245      0.87197039364911
  H          -1.22196448670756      2.40708666299951      0.84640311503293
  H          -0.42412083454131      1.46844361397577      2.10010052711243
  F          -1.79871258701501     -1.80195375814823     -1.78992851830999
  H          -2.86351426750876     -1.32896402590235     -0.16269476852720
  H          -1.63029390673465     -2.63091974960469      0.00707079904761
  H           2.90465663156234     -0.11268077431669     -1.12415616506379
