18
Coordinates from ORCA-job NEB_reactant E -33.818690876310
  C           2.32066620086409      0.53828778795027     -1.01815627887659
  C           1.27038881535627      1.29993445823483     -1.31043461135754
  Br          3.87640000697611      0.95587028727976     -0.02626175285709
  H           2.34089203615351     -0.48155762060136     -1.36216266939457
  C           0.13220793159031      0.70617742794291     -2.11978408145839
  C           3.10145361360202      3.66102099746989     -2.54777789993201
  C           3.06128146086513      3.78684658687439     -1.22888145163616
  C           1.85599293744492      3.46010020398361     -0.39680774421120
  O           0.93862563094299      2.58089098883991     -1.03005088314615
  O           4.16236980782128      3.92657035654085     -3.33847456659030
  H           2.25571041974388      3.31917122826167     -3.12752876824725
  H           3.92353348969664      4.13221946655825     -0.67649309171438
  H           1.25955209827370      4.36283335994792     -0.21745604858346
  H           2.16381391604967      3.06370544039054      0.57694422327172
  F           0.29155745759466     -0.62811884074541     -2.35293198995520
  H           0.06633908826045      1.20337784722295     -3.09424269973942
  H          -0.81090608002157      0.83822816185323     -1.57862140083575
  H           4.91242116878594      4.21044186199580     -2.79977828473627
