18
Coordinates from ORCA-job NEB_product E -33.813335890800
  C           1.91732686802027      1.54904955610665     -1.15936004411569
  C           0.65207437953220      1.15959843213357     -1.91345805782952
  Br          1.59940276205622      1.37001634028489      0.74550593761053
  H           2.76201632905884      0.90732073775152     -1.41447598379247
  C           0.95532969819808      0.41071496830573     -3.19596361180157
  C           2.25786957707538      3.01480646126360     -1.49381656139455
  C           3.49461340649334      3.45462381384510     -0.76235673728765
  C           3.48984160709107      4.31934079817815      0.23363682212602
  O          -0.44309517363573      1.45796169924253     -1.54044186335568
  O           2.44327840525370      3.04584216421677     -2.89730383065027
  H           1.40000375487232      3.64175625879211     -1.20348672462763
  H           4.40995742321457      3.00228972059389     -1.11988155934015
  H           2.57739264341779      4.76425585995361      0.59473609937729
  H           4.39577149185496      4.60313775258298      0.73951364855160
  F          -0.17806465476739      0.14577964288057     -3.90346654833450
  H           1.43537392651789     -0.54950472550694     -2.97059740314449
  H           1.61325676617314      1.02602165604923     -3.82166248253819
  H           2.71655078957335      3.93368886332605     -3.15312109945306
