19
Coordinates from ORCA-job P E -24.397366144980
  C          -1.34650569532070      0.37645055024071     -2.37188546712758
  C          -0.03695235885870     -1.62485590988253     -1.03639083393467
  C          -1.44082878014884     -1.88225161805760     -1.49041586866544
  C          -2.07020977815740     -0.91592822324031     -2.14021811234418
  C          -0.71791358607332      0.84100615647865     -1.04384049908296
  C          -0.00096892295873     -0.28859540925620     -0.29752789541748
  H          -1.89260096170595     -2.83698159803066     -1.27323799113058
  H          -3.08199554869937     -1.01634130876513     -2.49979005914484
  C          -2.25475784663576      1.45877415108082     -2.94379068180589
  H           0.32942996367914     -2.42228726674201     -0.38898834632315
  H          -0.53118390921866      0.19073377259242     -3.08468644219585
  H           0.61789234325294     -1.57350275259749     -1.91279695413148
  H          -1.51934379022280      1.22387015390476     -0.40680446410126
  H          -0.44321527356316     -0.41974988096817      0.68982944164557
  H          -0.04760073658745      1.67483389680690     -1.25238490972817
  I           2.08188276492427      0.22009237039583      0.14875803809723
  H          -2.66349065240400      1.14185319956465     -3.90050091794956
  H          -1.70190872589395      2.38319835147965     -3.09610295373966
  H          -3.08137850540755      1.66040136499571     -2.26524508292005
