20
Coordinates from ORCA-job NEB_product E -29.887462596680
  C           1.45780645063871     -0.81855321915437     -1.34608899478931
  C           2.72013580070600     -1.52943888873846     -0.87637546305225
  C           1.79176001168910      0.58777624048949     -1.83005773213623
  H           0.75934974880181     -0.75801692883180     -0.50395303844438
  C           2.44887095294929     -2.86878676751414     -0.37896301204739
  C           0.85643939566598     -1.74905223562381     -2.43177259075565
  C          -0.13373261326236     -1.04346822204241     -3.31708938358083
  C          -1.44052429450807     -1.21297275932811     -3.24495061526131
  O           3.82389210864274     -1.05197442412317     -0.87833658119258
  N           1.99265829475040     -2.32147264257504     -3.14969677201138
  H           0.35442859216903     -2.58184466863694     -1.92496313135515
  H           0.29544442146478     -0.38473067175664     -4.06122579349946
  H          -1.88604209372602     -1.87071514287729     -2.51658858018121
  H          -2.12004215156599     -0.70088795106096     -3.90473542931655
  H           0.88561328823018      1.12006810827325     -2.10678754413489
  H           2.46467512577296      0.55396790990248     -2.68335815560302
  H           2.29241380140254      1.13663763057361     -1.03569507619683
  N           2.21721848858012     -3.91129948071675      0.03331491186361
  H           2.48187528775428     -1.60833132156437     -3.68038587514996
  H           1.69285938384454     -3.04320456469457     -3.79479114315520
