20
Coordinates from ORCA-job NEB E -41.418355034270
  C           0.42711252048540      0.78867680752898      0.52139902370872
  C          -0.83867389679005      0.20618572440320      0.60900138242958
  C           0.55724093981059      2.01554461846643     -0.35078758462042
  H           0.98639162829217      0.87707604053546      1.44656114846273
  C          -1.19653476824379     -0.54245945404835      1.87757386407755
  C           1.41286316807159     -0.56856036659384     -0.54917440359441
  C           0.45929121324242     -1.45831808201278     -1.01489893183894
  C          -0.70144780252995     -0.89874415162970     -1.63537367357175
  O          -1.49160000748636     -0.12768247205288     -0.46658290434845
  H           2.17150518494771     -0.94810001338855      0.12058905921325
  H           1.77836333023759      0.18014528366144     -1.23483881841785
  H           0.32678193010590     -2.39795714758298     -0.49499098204941
  H          -1.45877934378484     -1.59449684524709     -1.97940887686917
  H          -0.51666664001037     -0.10623002229758     -2.35739999176249
  F           1.86869300331239      2.33444965135216     -0.58808858570575
  H           0.12392640001216      2.87417494461872      0.17699506818245
  H           0.06781891761242      1.89643824722091     -1.32127476814045
  Cl          0.00838850083429     -1.82550560075008      2.25142273679904
  Cl         -1.20095221702848      0.59119285442232      3.24693247076656
  Cl         -2.78372206109080     -1.29583001660578      1.74234476727920
