20
Coordinates from ORCA-job NEB_reactant E -41.449842450390
  C           1.97569247007008     -0.23671664180628      0.04653584375807
  C           1.42549579204322     -1.44778758891218     -0.04017271693634
  C           2.12294469652636      0.68098060501315     -1.12649664602427
  H           2.35867150794136      0.11020696191012      0.99265497866403
  C           1.28408213144023     -2.31279797734578      1.20127945221048
  C           3.79777400296548     -3.88359289972100     -1.48411009378981
  C           2.50299243989085     -3.74995388273505     -1.69974463802376
  C           1.87062587758986     -2.46549340307049     -2.14214716631592
  O           0.91731322507664     -1.98206838897139     -1.17700162202421
  H           4.22703822625894     -4.81546999376768     -1.15931026354178
  H           4.48401202075420     -3.06561881816623     -1.63352611927586
  H           1.81745731724377     -4.56925938762859     -1.53537975918728
  H           1.27135093908183     -2.62130021631639     -3.04320416978504
  H           2.63986831482380     -1.71170747495280     -2.33417579025907
  F           3.39753474003560      0.59990610939398     -1.65239437172693
  H           1.98047269654147      1.72302750658424     -0.82513253947461
  H           1.43131920955933      0.41554991143672     -1.93183677470414
  Cl          2.89535065143414     -2.93177761611337      1.67015809933203
  Cl          0.64315595681374     -1.36835414124040      2.56218670726318
  Cl          0.21084778390908     -3.68267266359059      0.91751758984122
