23
Coordinates from ORCA-job NEB E -31.509436481530
  C          -0.66808982406726      0.52353587640265      1.71182831783198
  C          -0.16112698433655     -0.52738450615491      1.07354939074476
  C          -0.62901173455012      1.95874119567560      1.29184865310819
  H          -1.14389085967798      0.33646518305989      2.66340712354809
  C          -0.14558866250597     -1.92125505159419      1.63969301888180
  C           1.12882092473279      0.86290338239931     -3.35069448545152
  C           0.56219789604917      0.59452961812551     -2.22896981305281
  C          -0.08578191916829      0.24590373536200     -1.14562551841076
  O           0.47993108019446     -0.47306432767731     -0.14929805770688
  I           1.07310822698045     -0.47920468833145     -5.02413601815822
  H           1.66972081878293      1.76090674949188     -3.58852506849476
  H          -1.62887671168506      1.69250719962466     -3.58040080742748
  H          -2.23542449172659      1.97251736854797     -3.98111869558135
  H          -1.12423327147216      0.53927828045986     -1.01173956450993
  H           0.06644057601433      2.12534325761097      0.47227027905596
  H          -0.31698286941915      2.56936649817927      2.13822603478992
  H          -1.61863791252135      2.30369418765758      0.98800129103645
  C           1.26195408678451     -2.30129778367485      2.10065120488646
  H          -0.46842778189484     -2.62089138410187      0.86510775299058
  H          -0.84142901660475     -1.98101679502541      2.47664822161743
  H           1.95882793517972     -2.23043142347418      1.26959935506357
  H           1.27223256002606     -3.32011227772237      2.47966529465118
  H           1.59426793488564     -1.63103429484062      2.89001209058739
