23
Coordinates from ORCA-job NEB_product E -31.601586274290
  C           2.53258100010898     -0.69356919529943     -1.58236143075011
  C           1.32683049687240     -1.61951268690980     -1.71751810702359
  C           2.04921944024362      0.58582768185005     -0.88531009524477
  H           3.27795268067666     -1.18108146656233     -0.94514929887486
  C           1.18040834594262     -2.62489297722086     -0.59873386373661
  C           3.19691740967218     -0.32545682767865     -2.90902357568057
  C           2.34510667525843      0.42951014741908     -3.86033034297036
  C           2.71779023769561      1.57423409703247     -4.40548983749893
  O           0.54053088750705     -1.54871517249877     -2.62566134839064
  I           3.88701722394935     -2.16159037649045     -3.89852299009697
  H           4.11998727668270      0.22289909740941     -2.70791888690179
  H           1.39167391661738     -0.01967882453957     -4.09633654764467
  H           2.08381085622222      2.10374569742294     -5.09502457551432
  H           3.67062456537201      2.03002320763706     -4.18512576483936
  H           1.28027035626219      1.07134019804144     -1.48209081111612
  H           2.87732205104213      1.27969505972008     -0.75562138487864
  H           1.63552870069624      0.35255412840956      0.09318608391472
  C           2.05710604375484     -3.84815542081765     -0.88126992532185
  H           0.13594502579614     -2.93631443693999     -0.54861379252310
  H           1.46978162047774     -2.17436651281198      0.35218542242689
  H           1.79321521977860     -4.28736892554307     -1.84001804106811
  H           1.90962845085729     -4.59472535720391     -0.10512024452697
  H           3.11105151851362     -3.58150113442563     -0.90543064173925
