22
Coordinates from ORCA-job NEB_product E -45.907069696790
  C           0.65366222635673      0.69090866227881     -1.20514130163380
  C           1.02344881675505     -0.72166020502543     -0.83672580666127
  O           1.73079703089785      1.38722491086937     -1.76086627828872
  H           0.25157579656413      1.21295868139959     -0.32046598798647
  C           0.02082603831797     -1.43463868659868      0.12801010060468
  C          -0.48727320989746      0.70391249931051     -2.30696114092568
  C          -0.22890089580346     -0.36603135390911     -3.32689581346861
  C           0.57128989988175     -0.20749312957155     -4.36308562415043
  O           1.98164946652258     -1.32549080455666     -1.22454973906766
  O          -1.75359061268354      0.65762760823743     -1.73318466588567
  H          -0.38553096863812      1.69561737110837     -2.76229516140974
  H          -0.73166126475879     -1.30883959296926     -3.14540923122673
  H           1.08203541834738      0.72356960919750     -4.53748916049005
  H           0.75688378474990     -1.00532447643467     -5.06041982710897
  C           2.77192814599480      1.68434240938513     -0.85298469393978
  H           3.47200811975061      2.30892094474422     -1.40281187689825
  H           3.28499650022478      0.78118775892340     -0.51137472174952
  H           2.39019770744197      2.23587792159088      0.01404048618194
  F          -1.04279708630461     -1.90866034998902     -0.54892602006895
  F           0.58687474586037     -2.46784653399654      0.74387677512259
  F          -0.45947882914109     -0.61724097532447      1.07338694822245
  H          -2.06174083043882     -0.25432226866985     -1.65702725917134
