21
Coordinates from ORCA-job NEB E -44.266585888770
  C           0.29123576895772      0.65823854357131      0.72149028440930
  C          -0.74320236327987     -0.08729444327301      1.36439237728604
  N          -0.16190226388755      1.86585614533904      0.06906421502743
  H           1.19158795849060      0.85149296342501      1.29904896943534
  N          -0.51226814472101     -0.64403840881271      2.59002160723601
  C           0.70125223294749     -0.47982106634025     -0.70872569423141
  C          -0.51260507797147     -0.60761260244381     -1.39976679241609
  C          -1.59753281796588     -1.18432602215143     -0.65490544577089
  O          -1.81141232157273     -0.43987126955656      0.73175243875618
  C           1.88453601875104      0.12535356077456     -1.43004600790237
  H           1.02976448755095     -1.32817794415408     -0.11159863598774
  H          -0.73826403739238      0.07943525654773     -2.19808163559446
  H          -1.42007521359958     -2.19475932441727     -0.28649899880763
  H          -2.57088390505717     -1.09056282460044     -1.12235609294088
  O           0.46587098966938      2.87480493917644      0.32160324721036
  O          -1.14721084650920      1.79682157572653     -0.63136807935176
  H          -1.29861277929324     -1.08396972549905      3.04120785639369
  H           0.18358331384857     -0.23249927546719      3.18849159823552
  F           1.59291962749840      1.31162171784389     -1.99839782898933
  F           2.90703142581968      0.34969391537872     -0.56338249333654
  H           2.26618794771626     -0.54038571106744     -2.22194488866075
