21
Coordinates from ORCA-job NEB_product E -44.319976784730
  C           2.89306068192885     -1.07287183706326     -1.45874904149427
  C           1.81121431642421     -1.92760230689685     -0.71500681698360
  N           2.73259140281582      0.34169627871194     -1.07201082420899
  H           3.85663437928587     -1.39866495367904     -1.04552017895245
  N           1.74900175224065     -1.67303047190651      0.59603674490650
  C           2.86627287262614     -1.34339801345008     -2.97339833225987
  C           1.80923747979813     -0.59131552577315     -3.74707009923633
  C           0.56893965473389     -1.02355462570910     -3.86967221068454
  O           1.16522041816693     -2.76180706034514     -1.29399458752450
  C           4.25134681631618     -1.06694750093292     -3.55824200939283
  H           2.67584021754880     -2.41857019099544     -3.07696559421570
  H           2.12874570279991      0.33370558851948     -4.20354162852003
  H           0.23983195195636     -1.93724005675985     -3.40379450967956
  H          -0.16363118712203     -0.46707993660565     -4.42671895455623
  O           3.10087256147987      0.60754259357712      0.05628540429610
  O           2.22112028779031      1.11886121275999     -1.82811958286088
  H           1.07709818914234     -2.17259619764440      1.15501417110626
  H           2.28927766013057     -0.93091054950291      1.02053679083108
  F           4.69252000031021      0.16819278090796     -3.22188988355064
  F           5.16392595458709     -1.93340240884465     -3.04612819743308
  H           4.27977888703989     -1.15390681836752     -4.65365065958645
