18
Coordinates from ORCA-job NEB E -42.156414505090
  C           0.27633907767599      1.32154425554035     -0.42543215936305
  C          -0.84909155015095      1.02190125681793     -1.22090040973869
  Cl          1.82435806798004      1.21638279232496     -1.20447229342879
  H           0.23155108770121      2.15127685672222      0.27145924071043
  O          -2.07461324428340      1.46473702183505     -0.81776841063873
  C           0.15685093397585     -0.32774557130654      0.69648984863712
  C           0.24864081340161     -1.33971298105798     -0.26527285915295
  C          -0.80155799647015     -1.44900653453837     -1.19860031762574
  O          -0.82589142221781      0.04595607311618     -2.02812378137269
  C           1.18356888029544     -0.23935986107442      1.78933375410866
  H          -0.83347744098911     -0.11361692066245      1.09229182200740
  H           1.22431834183757     -1.71793528015008     -0.52765583089616
  H          -1.81748505736920     -1.40532173366328     -0.82165130843394
  H          -0.67095857878316     -2.13906881871449     -2.01990437056521
  H          -2.00640750974557      2.20924738680646     -0.20842894865621
  Cl          0.78042394107590     -1.50919629080623      2.99840800747444
  Cl          2.84197472725299     -0.51315311895989      1.25240943235805
  Cl          1.11145692881274      1.32307146777060      2.63781858457607
