29
Coordinates from ORCA-job NEB E -38.785674003310
  C          -0.55218993002854     -0.30217838354174      0.66930568701466
  C          -1.82714508101970     -0.09126585673001      0.12958915690006
  C          -0.17762088752242      0.45303845789884      1.93435460507541
  H          -0.22938649017910     -1.33795554148785      0.69803457868710
  C          -2.41021095511586     -1.16679033531838     -0.76984580399700
  C           0.55009660499346      0.51486244267039     -0.73709067872635
  C          -0.29071804223055      1.34207466070854     -1.49317278264130
  C          -1.21575740840813      2.15832290110076     -0.79100423876103
  O          -2.25441827903676      1.11848576066995     -0.07168903047925
  C           1.28183185269639     -0.58835193345928     -1.47394056999848
  H           1.16013417100755      1.02289150759713     -0.00135529143450
  H          -0.61354113982521      0.97135005383551     -2.46023270950535
  H          -1.90035413262063      2.75363355700327     -1.38328745928875
  H          -0.82513551707546      2.70900314379316      0.06032650451057
  C           1.17180725289735      0.05358680017186      2.51818748358058
  H          -0.94859344208290      0.22217035068806      2.67567728914644
  H          -0.21035249503462      1.53030702054388      1.77165335754420
  H           1.20677276151807     -1.01872503119888      2.69848739938269
  H           1.32614222832606      0.56179917002329      3.46728451982279
  H           1.99463047392863      0.31643291874508      1.85847516770294
  F          -3.78029503653525     -1.13061867545062     -0.77314169803465
  H          -2.11789963984270     -2.17035396157337     -0.44666334587107
  H          -2.09328155803788     -0.99034401784285     -1.81059495988808
  C           2.40601485600006     -1.23217087753450     -0.67220250647855
  H           1.70564735165450     -0.15980353904356     -2.38637061084117
  H           0.56620117444758     -1.35450326745233     -1.78297146475950
  H           3.14004102560456     -0.48565900727254     -0.37649641015147
  H           2.91175639549999     -1.98333445722562     -1.27465461821427
  H           2.02582388602150     -1.71590386031819      0.22333842970335
