29
Coordinates from ORCA-job NEB_product E -38.840694285200
  C           2.70910937618186      0.02552697713632     -1.94380069567098
  C           1.54831772507885     -0.85716564180822     -2.36971841233957
  C           2.24392697748995      0.82707845525344     -0.71438308251532
  H           3.55135232240361     -0.60707880675474     -1.64720092253619
  C           1.85137554400450     -2.34637071999830     -2.24414182648803
  C           3.17293493927723      0.94315811105121     -3.09995280597329
  C           2.13491220722796      1.97079088895631     -3.44285896765760
  C           2.36058363337429      3.27088458783651     -3.44961516186138
  O           0.48110539917334     -0.44814010053771     -2.73487136385871
  C           3.51916982456357      0.13535759830056     -4.36378036863923
  H           4.08291423637063      1.45580288846321     -2.77129812421022
  H           1.16531353748253      1.57886010951782     -3.71388287761793
  H           1.59819297135608      3.98054197954818     -3.72163571896491
  H           3.32158638418712      3.68564875171345     -3.18763814158459
  C           3.36613745394668      1.62617608245271     -0.06533495869435
  H           1.83663300921619      0.12602984066229      0.01938627789921
  H           1.43853426778688      1.49738008699648     -1.01685915297925
  H           4.21115102814251      0.98277623455692      0.17174706777352
  H           3.01063940093362      2.07783310935712      0.85741704138353
  H           3.70615738963916      2.42223498229740     -0.72085578021467
  F           0.77235499971112     -3.11749409154612     -2.56759173002360
  H           2.12807537018154     -2.58570422028599     -1.21041952564465
  H           2.66696247536952     -2.62635058129886     -2.92094048123807
  C           4.79520056829296     -0.68739233226821     -4.22444994005826
  H           3.65224757609853      0.84250299680449     -5.18604859851128
  H           2.68003872204944     -0.51235169437945     -4.62612623504106
  H           5.63764006314909     -0.04129272358229     -3.98669360861415
  H           5.01284602800879     -1.19975136520397     -5.15869689740974
  H           4.71028656930249     -1.43669140324056     -3.44075500870923
