29
Coordinates from ORCA-job NEB_reactant E -38.831395662870
  C           2.09476911438695      0.06843399829805     -0.35106041323364
  C           3.09314742471494      0.46438883541153     -1.13992322892636
  C           0.98165437329971      0.94560850450589      0.12300413967936
  H           2.09315794493996     -0.95174829358173      0.00238208919042
  C           4.16327815513921     -0.51364191219626     -1.56274979595442
  C           3.76086911770166      0.72818026589169     -4.89456748226240
  C           3.08271233947737      1.28652047849615     -3.90690130772318
  C           3.69853432518171      2.09514769423062     -2.80566511561796
  O           3.17896597478351      1.77892843410967     -1.52248396466393
  C           3.15455021728574     -0.08959547778742     -5.98711634946431
  H           4.83765034665983      0.84067024455138     -4.94366332095281
  H           2.00924103513564      1.17287740408990     -3.83719059120319
  H           3.44453788287913      3.15490152283447     -2.92802006735576
  H           4.79433613167315      2.00776738829904     -2.82240130566499
  C           1.06043740630524      1.16572000777783      1.63374838213448
  H           0.02602358060777      0.47178128348019     -0.11847563839948
  H           1.03710030775468      1.90516551684437     -0.39070287258738
  H           1.01042210929493      0.21555356465368      2.16135366723088
  H           0.23653907525070      1.79118873138001      1.96918057518864
  H           1.99594082276880      1.65559178748236      1.89277846762915
  F           3.65912934342985     -1.44753408518953     -2.44634683624639
  H           4.52654770413177     -1.08128230167328     -0.69947052086509
  H           5.00139267081466     -0.02935788975348     -2.06780712447118
  C           3.73889943146296     -1.50208463628309     -5.99172542093848
  H           3.36023254155033      0.38829538706213     -6.94981070524891
  H           2.07281576138461     -0.13873985615215     -5.85434656512670
  H           4.81247357942238     -1.47074712510871     -6.16523314624556
  H           3.28011361897011     -2.10027974225640     -6.77526642965389
  H           3.55782766359267     -1.98170972941690     -5.03331911824694
