26
Coordinates from ORCA-job NEB E -44.096144199820
  C          -0.00298213310973     -1.06638858052397      0.49082507251596
  C          -1.35223590159698     -1.31381011833158      0.15701073585361
  C           0.28621361242573     -0.55343982282139      1.87698703984815
  H           0.70490282734810     -1.85635143225196      0.25363945576194
  C          -1.67506596385518     -2.38630440451488     -0.84500865984877
  C           0.40254647424608      0.36215396962482     -0.73044655446907
  C          -0.59976694092880      1.29884000615807     -0.44580083814203
  C          -1.95524248133081      0.91050651685264     -0.62295616402921
  O          -2.21528871885054     -0.36652337738481      0.36356889862196
  C           1.87291706316087      0.72280750082268     -0.62438358313793
  H           0.22219309220587     -0.25518550183846     -1.61001200148736
  H          -0.39614974853462      2.09562125291420      0.25000959052588
  H          -2.21146773188784      0.45428812707388     -1.57683006728108
  H          -2.70547825821209      1.61390990650554     -0.28455674915224
  F           1.60798539793795     -0.44426707630769      2.11108969542577
  F          -0.25392532851583      0.61706197717586      2.21063031977738
  F          -0.15530054611307     -1.44171149558560      2.79520409554165
  H          -1.43959076035378     -2.03568753095427     -1.85425717400972
  H          -2.73754875894500     -2.61039318330049     -0.80610691569075
  H          -1.10445449652053     -3.28912907349113     -0.65102758984818
  C           2.19219413617057      1.96213744334572      0.20342583740058
  H           2.22832891427522      0.89073040542855     -1.64581619375874
  H           2.43601915230040     -0.12653218484649     -0.23360630937767
  H           1.75283238383952      2.84855893817885     -0.24714829726346
  H           3.27014933700834      2.09826521238068      0.24380584415571
  H           1.82821537783615      1.87084252569123      1.22176051206762
