26
Coordinates from ORCA-job NEB_product E -44.139437430210
  C           2.73409304667152      0.99998661858075     -1.39002567608415
  C           1.64333800548291      0.05935681233272     -1.94775674245993
  C           2.42107495033237      1.21669608987804      0.08572334539846
  H           3.69720971522331      0.48073522709872     -1.40913518952008
  C           1.98643473536024     -1.39995719609138     -1.88787956051871
  C           2.80976078773148      2.30848749406328     -2.22676908887441
  C           2.24877906233362      3.51207409890067     -1.52223039543401
  C           1.09552783461723      4.06268073823519     -1.84929131478439
  O           0.62325360974389      0.48862966999779     -2.40868435856334
  C           4.24043839489083      2.56192877426992     -2.73350028681508
  H           2.17980403935295      2.13953466097695     -3.10792128481502
  H           2.84502531814614      3.92912096721977     -0.72408533626311
  H           0.47643433677146      3.65744028979337     -2.63233820841582
  H           0.71590700386682      4.92935289174472     -1.33656907805967
  F           3.31207561478534      2.00510952441237      0.70366780554225
  F           1.21453625780599      1.72629892869692      0.32818481647413
  F           2.47042829053177      0.04361870710850      0.75717530640175
  H           2.84524864158798     -1.59183363825584     -2.52933241540684
  H           1.14235032133510     -1.99250659553856     -2.23011244129621
  H           2.25166092099036     -1.68906379502984     -0.87368009896455
  C           5.28186608373357      2.82350093575445     -1.65115680252482
  H           4.20178320359599      3.42540485643659     -3.40072805555183
  H           4.55176934809775      1.70084072659250     -3.33144835397721
  H           5.04858078444146      3.72401662953565     -1.09122105184865
  H           6.25803822835119      2.95747964785105     -2.11162852692702
  H           5.35238146421874      1.99686693543571     -0.94865700671172
