20
Coordinates from ORCA-job NEB E -32.463176366640
  C          -1.24625700872885      0.72128802527904      0.88098652035161
  C          -1.47403095320073     -0.51743316596694      0.46684154871745
  C          -0.75483319014913      1.87412728626447      0.05930009501429
  H          -1.41569190987401      0.93308517748683      1.92564212689891
  Cl         -2.13510434752469     -1.66776963029713      1.61360380581907
  C           1.01894101013291     -2.34880199287388      0.32860401344492
  C           1.07205027746008     -1.57573902312905     -0.73753834023253
  C          -0.12112194420513     -1.00814082926106     -1.45030592756791
  O          -1.35625119262548     -1.08423020600979     -0.75603464308583
  I           2.74399868680347     -3.08705201742524      1.27473544469706
  H           0.10782485381058     -2.66241650122939      0.80617611827712
  H           2.01705866937057     -1.30398405893774     -1.18742348804346
  H          -0.30053325450114     -1.58093559726004     -2.36788526014386
  H           0.10462259750479      0.02499527687578     -1.73897397392327
  C           0.72408916986993      2.15545157599950      0.33398118473703
  H          -1.33748576693343      2.75592456843759      0.33520389918321
  H          -0.91962315936760      1.69331791908877     -1.00319097659954
  H           0.87203780812116      2.39178007430427      1.38469607742302
  H           1.06553167779343      2.99853541824545     -0.26170401077678
  H           1.33477797624327      1.28799770040857      0.09328578580949
