28
Coordinates from ORCA-job R E -34.835464756340
  C          -1.46781697165748     -0.71791643953618     -2.95284616521298
  C          -0.53526817093244     -3.46878062660183     -2.09931772913462
  C          -1.59956839698830     -2.80683430784626     -1.64260217899441
  C          -2.08882887778055     -1.51753202979159     -2.06472461372503
  C          -1.31535321198453      1.94416976412787      0.11353221009671
  C          -0.55653720557215      0.87508033099665     -0.07004137827850
  H          -2.17994985200934     -3.26671513995950     -0.85053373870812
  H          -3.00720700671300     -1.19479356523853     -1.59766866113906
  N          -1.90423263390482      0.47870565852173     -3.44075741853056
  H          -0.25655319748541     -4.42609272329880     -1.69398298859783
  H          -0.53258823786668     -1.03798933347752     -3.39098915385125
  H           0.08742283144174     -3.09589432771741     -2.89469692805383
  H          -2.18241644870791      1.90034274789702      0.74426002308254
  H          -0.78436031995710     -0.07578445811665      0.40001030857525
  H          -1.07976335780557      2.88440699830683     -0.35165193084384
  O           0.53747934292518      0.89068034975309     -0.87287171221796
  C          -0.91989879509318      1.40215613041366     -3.95052805209138
  C          -3.09657397661386      1.08149003585273     -2.89955607748198
  H          -0.44423166179364      1.97582592967683     -3.14608905695401
  H          -1.39752781154450      2.09626325630051     -4.64346069533575
  H          -0.14686225191195      0.85383192806771     -4.48652400557092
  H          -2.94690583345381      1.44671880272066     -1.87605074511262
  H          -3.90423942691362      0.35071909023443     -2.90139543182029
  H          -3.38721600628028      1.91886597262664     -3.53295471929975
  C           1.32362359955323     -0.27857477425148     -0.85671891174155
  H           1.83958346689122     -0.39160516813332      0.10310152500516
  H           2.06257967253649     -0.16284165730458     -1.64778263340248
  H           0.71829073962225     -1.17022244422272     -1.04625914066097
