23
Coordinates from ORCA-job NEB E -45.090138272420
  C          -0.26457806069997      1.70463468906861      1.09325290714252
  C          -0.01986870844382      0.86931934045318      0.11797338898183
  C          -1.57541191158425      2.46936748559439      1.20210899774003
  H           0.17910024238503      1.47149695428368      2.05179525029723
  F          -0.86509887365357     -0.74463897852804      0.15188457091682
  C           0.80150773827746     -2.83058123655521     -1.41333163031700
  C           1.11994575048938     -1.59359790761837     -1.06796370330104
  C           0.63327447271611     -0.37919486354456     -1.79019248270381
  O           0.63000149484409      0.78036654686834     -0.94143000916148
  C           1.35267151005861     -4.02780626050786     -0.71030655172737
  H           0.12504330611629     -3.06870669946576     -2.21881684954995
  H           1.78508581764321     -1.40714046679834     -0.23548474887816
  H          -0.37577625160610     -0.54305725130193     -2.17746175748852
  H           1.31533090761196     -0.11086097224273     -2.60386861851087
  C          -1.34212189742124      3.81221752950316      1.88151379976765
  H          -2.29804186232138      1.88242171293400      1.77516705623309
  H          -1.98165623809678      2.62212870940338      0.20205768127699
  H          -0.96030990191234      3.67066018641103      2.88952219018367
  H          -2.27709546588219      4.36452169788324      1.94031697533618
  H          -0.62411254076067      4.40582923398671      1.32098020005230
  F           2.11368577790442     -3.72735881746782      0.34897211947319
  F           0.39412374399530     -4.85942132265267     -0.28159268429840
  F           2.13430095034044     -4.76059930970638     -1.53509610146489
