23
Coordinates from ORCA-job NEB_product E -45.215049041700
  C           2.59869048702263     -1.29126120040913     -0.96746493712423
  C           1.50558713796128     -1.88753142903517     -0.12543576218113
  C           2.39021448372565      0.23918070489547     -0.99955437604367
  H           3.54112421167231     -1.48969471437826     -0.44194552312315
  F           1.60047907814942     -1.45234145463496      1.15997775007003
  C           2.60186292574238     -2.00350122900144     -2.34440943368075
  C           1.94646692821363     -1.22047936917874     -3.45140960368613
  C           0.72249919695752     -1.46884703765579     -3.87534690654794
  O           0.63522446411581     -2.62645982975212     -0.41999484262060
  C           4.01227265524023     -2.39994230427973     -2.76511893685080
  H           2.06053582563584     -2.95096671945485     -2.22610010815037
  H           2.54434057860264     -0.43708123290197     -3.89516736841423
  H           0.11967313831206     -2.24853968312246     -3.44047160394464
  H           0.27332476191483     -0.89509869137651     -4.66688520460851
  C           3.63819609964723      1.01090075240054     -1.40819447342210
  H           2.10449528072691      0.56103616302299      0.00401488234800
  H           1.56346052747896      0.47096616118221     -1.67340223539598
  H           4.46941833850820      0.77202756309880     -0.74913478726490
  H           3.44222843481778      2.07772209039923     -1.33648970566484
  H           3.93749899303682      0.78961668260532     -2.42718950520246
  F           4.80926421133503     -1.36192081689846     -3.05285867587953
  F           4.64520679729973     -3.10214855447588     -1.80927777112635
  F           3.99463544388310     -3.17513585104909     -3.85784087148572
