23
Coordinates from ORCA-job NEB E -40.910367504950
  C           0.08244151768746      0.05654035711656      0.67605837936883
  C          -1.07386745352113     -0.69111538839269      0.40548049106590
  C          -0.00053505041367      1.57462285250405      0.68028240449864
  H           0.68178467766670     -0.32023202006289      1.50093501273309
  C          -1.13341153410929     -2.12163502627660      0.93249420825347
  C           1.12401371598902     -0.34840829002619     -0.88974529160464
  C           0.28706657121951     -0.87085238967124     -1.88301217772135
  C          -0.96911442342146     -0.21809461625172     -2.04114825813944
  O          -1.77238632725445     -0.48177119826996     -0.66997888774243
  F           2.12342109653488     -1.15684129617319     -0.46725026264939
  H           1.50376967747194      0.66257636997558     -0.99621435006944
  H           0.31314455352587     -1.94440777025553     -2.02264829530647
  H          -1.64901500410026     -0.64394362327904     -2.76921543220260
  H          -0.93813508598809      0.86719568816054     -2.09753069396475
  C           1.28153065096400      2.23013220012125      1.17985059736853
  H          -0.81189262166387      1.84597895702597      1.36071836490560
  H          -0.26817114534496      1.96150891098565     -0.30387399448065
  H           1.50381768368619      1.89995689499715      2.19164461129015
  H           1.16553683788846      3.31105025592708      1.19047564249627
  H           2.13555518881806      1.98850697354171      0.55120608391241
  F          -0.54999243732261     -2.23039581185519      2.14805815580156
  F          -2.40925476704532     -2.54095478225735      1.07649453596995
  H          -0.62630632126697     -2.82941724758396      0.24691915621676
