20
Coordinates from ORCA-job NEB_product E -51.986988880170
  C           3.05590945751967      1.54370448966127     -0.92302679590214
  C           1.75600682742511      1.27176984114353     -1.64999582327657
  Cl          2.81782569472870      0.62338116361443      0.60186725313681
  H           3.90171272903650      1.08292543129726     -1.43861869275927
  C           1.80019145239291      0.07016737164143     -2.60324624379708
  C           3.26269741848021      3.05003323728422     -0.68957923602691
  C           2.60382395923319      3.53928915937396      0.57380584892544
  C           1.51074955592969      4.27671234085021      0.57747206923507
  O           0.77568507217338      1.94498309163027     -1.54682654950894
  C           4.74223528902855      3.41158209442599     -0.68632746920304
  H           2.80258950941397      3.57045090099765     -1.54101497515946
  H           3.08557649138218      3.24732877591469      1.49654068437743
  H           1.01153881534510      4.56515841098658     -0.33213261302506
  H           1.06495925225962      4.60656429078713      1.49891307206401
  Cl          2.66346600482918      0.76606379811074     -4.01820760811456
  Cl          2.70615253897758     -1.31328317580954     -1.98884594343769
  Cl          0.17752722553384     -0.42394089680765     -3.07472420036052
  Br          4.94862161797858      5.32334479393423     -0.37249599433097
  Br          5.73779379947147      2.45561057484953      0.67953046190171
  Br          5.55753728886058      3.00805430611406     -2.42628724473825
