20
Coordinates from ORCA-job NEB_reactant E -51.986586925220
  C           2.53889400942156      0.38001566213306     -0.95940008794338
  C           1.67770626393335      1.27014862166198     -1.45585514446308
  Cl          3.16823408573598      0.31118001741343      0.63771659461569
  H           2.92293494949922     -0.40661539317108     -1.58636170973804
  C           1.26149853413031      1.19872040732225     -2.91004196489560
  C           3.62270051307552      3.53817886401491     -0.58074462983206
  C           2.87859535122373      3.25308503778006      0.47681724456403
  C           1.44910928928807      2.81916433475354      0.37663741414386
  O           1.07434921835591      2.34937112549162     -0.90511862757811
  C           5.05800180923619      3.87913368598440     -0.57062413021391
  H           3.20834720125583      3.48639860159663     -1.58083354096082
  H           3.26806529175476      3.31332414103225      1.48310275627319
  H           0.79011463043037      3.67887630424267      0.54450076685565
  H           1.23377109565639      2.06917678106890      1.14476432764226
  Cl          2.15121415879106      2.46973088777575     -3.80238618995078
  Cl          1.59921574558136     -0.35037452367981     -3.67946343648145
  Cl         -0.47734754125818      1.52787829594128     -3.05274366954490
  Br          6.04504736952381      2.41152514486072     -1.46409747523383
  Br          5.36775893879791      5.52488452821074     -1.60049108339972
  Br          5.82768908556688      4.11959747556671      1.19212258614099
