20
Coordinates from ORCA-job NEB E -37.590780196410
  C           1.06609434195188      0.06446172967406     -0.64301930119417
  C           0.46697727798026      1.08705713506486     -1.37673342759808
  C           0.85314376346658     -1.35374290286952     -1.09976342538475
  H           2.06026131552472      0.26056376189090     -0.25629344425709
  Cl          1.12815584424618      2.71568307044423     -1.13237269005476
  C          -0.09842338551358      0.28544180227375      0.95136286823321
  C          -1.38187110683260      0.17341548248764      0.42581807665913
  C          -1.79577358920306      1.15439764720946     -0.52004130597937
  O          -0.74702601056223      1.02689932530332     -1.76095728194326
  C           0.35590079419768     -0.72172102787872      1.97977671890586
  H           0.27350566928761      1.27647563422259      1.19433731180139
  H          -1.85077170236524     -0.79892829677944      0.40723784280153
  H          -1.63345290555760      2.19275080173321     -0.24056378936852
  H          -2.75102408108931      0.99351679350833     -1.00345895571392
  H           1.08423541934775     -2.06180125488798     -0.31082261654196
  H           1.52734632831575     -1.55422584764493     -1.93184959211818
  H          -0.16760222929075     -1.50503462761090     -1.43959814280633
  F          -0.12301163212587     -1.96574326775851      1.74517988875950
  F           1.70611709938369     -0.83739526808829      2.01828011044004
  H           0.02721878883814     -0.43207069029404      2.99348115535972
