20
Coordinates from ORCA-job NEB_product E -37.637840097120
  C           1.45235995281866     -0.26325992550401      2.31379258008193
  C           1.23166822645579      0.81784410280506      1.29252456463846
  C           1.03537448313186     -1.60425565044091      1.71276466956942
  H           2.52039115920736     -0.27716489926621      2.55918294621475
  Cl          1.96898860659749      2.36312537039122      1.77356945983245
  C           0.68746554710821      0.12006441316564      3.61023007484015
  C          -0.79888059792640     -0.04617299119542      3.45630837779763
  C          -1.61678803773158      0.95471463858908      3.19428664182619
  O           0.65726325842658      0.74851148139304      0.26203376524893
  C           1.18448046459678     -0.67820335174403      4.81781298246572
  H           0.92075574424334      1.16733559926170      3.83126692944808
  H          -1.16916223503710     -1.05600292964099      3.56122683826218
  H          -1.26220508880578      1.96640602150153      3.08382388393628
  H          -2.67482284288104      0.80360615795497      3.07186275912948
  H           1.16923112303125     -2.40778387068500      2.42929074962061
  H           1.64614122991042     -1.81527579160025      0.83851642985295
  H          -0.00443204096727     -1.57237142045230      1.39920552244711
  F           0.93863919541012     -2.00505943435775      4.71121156657719
  F           2.52650057454932     -0.55816749316958      4.95983478936707
  H           0.71563127786199     -0.33339002700577      5.75315446884342
