20
Coordinates from ORCA-job NEB_reactant E -37.613147977100
  C           1.79866837294402      0.00071299245999     -0.00455497017430
  C           1.24609228785273      0.67893780115185      0.99300113048473
  C           2.25398354214676     -1.41645539193768      0.11476567421456
  H           1.95003131230249      0.49297608228428     -0.95127541555081
  Cl          0.73230376197148      2.33256939012947      0.74283915991943
  C          -0.34750896102989      0.11479975113757      5.42907741534571
  C          -0.13156985334595     -0.28781131703055      4.18858978558099
  C           0.00147335162099      0.63282746104174      3.02060088754175
  O           1.10223950782599      0.18783314168299      2.23882245216908
  C          -0.51009109900631     -0.81840221234012      6.58983696384188
  H          -0.45291114471952      1.15728741128084      5.69152422722588
  H          -0.03119439756857     -1.33897197013890      3.95784394770691
  H           0.16043150894229      1.66669001962278      3.34972623877928
  H          -0.92051018864055      0.59433393659787      2.42232489108492
  H           1.97803581889003     -1.82477955659593      1.08180182180650
  H           3.33635175238923     -1.47195423302983      0.00606792033800
  H           1.80768942251486     -2.01840737310355     -0.67530723327683
  F          -1.69677090118013     -0.59647350736998      7.21777249223641
  F          -0.51963533013169     -2.11694382912777      6.21255190793082
  H           0.28269123622173     -0.69576859671508      7.34859070279508
