19
Coordinates from ORCA-job NEB_product E -33.843315705160
  C           2.27951391228799     -0.13153421391609     -1.61429697717020
  C           1.98682848798345     -1.20455725360640     -0.60490464976795
  C           3.67089146057650      0.22956975404250     -1.48769534976121
  H           1.65398856001747      0.75539160072584     -1.47810252878291
  I           0.25883940619294     -0.77218454952794      0.62954497462940
  C           1.97152138707259     -0.72600081756172     -3.04899468912242
  C           0.62713425432559     -1.39985948184404     -2.99998722623226
  C           0.45856778483720     -2.70796959169952     -2.98850780165223
  O           2.57203674958087     -2.21789824136163     -0.45656456897872
  O           1.90032916222175      0.28797516928837     -4.00552378052084
  H           2.76077846816519     -1.45481068545561     -3.28987472774146
  H          -0.20939730597368     -0.71596907614722     -2.99185085798434
  H           1.29135056031127     -3.39226797671919     -3.00498145537685
  H          -0.52290830413788     -3.14721295360088     -2.94876046455642
  N           4.77461516086596      0.50213607233505     -1.37251679044826
  C           3.12709334469319      0.71495779622668     -4.55312052100848
  H           3.70203868118104     -0.13171825495902     -4.94249114921177
  H           3.73564638565343      1.25244073741349     -3.81993964273169
  H           2.86873184414514      1.38561196636734     -5.36993179358137
