17
Coordinates from ORCA-job NEB E -36.878356062440
  C          -1.18494496600777     -0.03764061624032      0.47920792360859
  C          -0.74680786093168     -0.09455744913772     -0.96203730502969
  H          -1.17178234773511     -0.99665594760489      0.97855859597825
  H          -2.21083462064405      0.34299179901339      0.46453183293006
  C          -0.29964846082522     -1.45987815562340     -1.51670241442386
  C          -0.39189029455225      1.04307444121352      1.24550362139116
  C           1.03829068529115      1.24019399957235      0.85611726313092
  C           1.87110409095368      0.27439818057253      0.52294894530376
  O          -0.82615757030005      0.81909994351754     -1.73047802896263
  F          -1.07401930467352      2.23037286491385      1.08009082930360
  H          -0.44939223749826      0.82146696584612      2.32460426742975
  H           1.36976330284429      2.27035003606125      0.89530298026193
  H           1.56823833752676     -0.75980209993253      0.51555381976481
  H           2.91253420297591      0.45978561124425      0.33640855155435
  Br          0.06299456137916     -2.85433322493643     -0.22012273966619
  Br         -1.76943007410976     -2.07711245161847     -2.64468015281319
  Br          1.30198255630673     -1.22175389686107     -2.62480798976162
