17
Coordinates from ORCA-job NEB_product E -36.886969799180
  C           1.33411892922749      1.85301039930879     -0.04064791926797
  C           1.97767123388865      1.94360187205641     -1.39638277611205
  H           1.86375343386590      1.08559890996134      0.52847017948235
  H           0.27779969915082      1.58739861689890     -0.10609173385818
  C           1.10435619226971      1.49075583660178     -2.56728750316432
  C           1.47698942827550      3.19039476269914      0.71810851798562
  C           2.90228488187499      3.63230843596625      0.86826040016954
  C           3.70843577304182      3.17070976255147      1.80489348353983
  O           3.09383342277629      2.31609394854889     -1.60624561489692
  F           0.76177657571354      4.14506506571383      0.02732667964002
  H           0.98450479141858      3.09062626747475      1.69453693722182
  H           3.23305973589149      4.36003182501717      0.14275111608724
  H           3.38329313021402      2.44582054914809      2.53393663734289
  H           4.72962492253540      3.49840700451266      1.87719482425192
  Br          0.61811540717622     -0.37839563594628     -2.26105588158799
  Br         -0.51185598785309      2.57021447708423     -2.67331385788402
  Br          2.09333843053267      1.62965790240259     -4.21975348894978
