17
Coordinates from ORCA-job NEB_reactant E -36.879395087890
  C           1.96505687321016      0.19491183118855     -0.15640364813928
  C           1.75420692977721      1.22892059170353     -0.95851746063921
  H           2.32033445983104      0.32355642793345      0.84851884308914
  H           1.78968968718990     -0.81425929132896     -0.47562487066253
  C           1.25514627488783      1.14114358770600     -2.36792517669617
  C           1.86745736558003      5.18016664975661      1.43873847291768
  C           2.53926169878368      4.40313196852993      0.61135894550388
  C           2.39970152210147      2.91615073405032      0.60106782997391
  O           1.93338713309667      2.54495543546087     -0.68495624760704
  F           2.01708400900224      6.50725974713205      1.43585158239054
  H           1.16904424454259      4.85248437784262      2.19644693139384
  H           3.20595207349213      4.82921863106921     -0.12286824420127
  H           1.68826332529672      2.58359619101648      1.36743360837506
  H           3.37590598987380      2.44438353356394      0.78340754644080
  Br          0.96639941285102     -0.64787734532745     -3.01620666308752
  Br         -0.43691666697933      2.12247795185777     -2.49145533630930
  Br          2.54892566746284      2.01897897784507     -3.54456611274253
