73
Coordinates from ORCA-job A2S E -112.910415731030
  Ru         -0.43179906915896      1.93559827608175     -0.30140861846339
  H          -0.24224897122169      0.44547800439482     -0.63466473159544
  N           0.62964142657806      1.57603541276183      1.45611185835393
  C           1.97455805299451      1.49347410265676      1.43325580297547
  C           0.01407144291645      1.52732633158596      2.64959714531891
  C           2.72815115791372      1.44739529565904      2.59845575260413
  C           0.71501560697468      1.48092037054963      3.84500656267451
  C           2.09852767817841      1.46439136791596      3.82916791180946
  H           3.80381647915077      1.39734194810831      2.53075257031517
  H           0.17065854204626      1.46346415353654      4.77610708493544
  H           2.66474448922898      1.45073657915910      4.74674363568345
  P           1.66793793238265      2.33533676817238     -1.15246365970069
  C           2.26096548504152      1.55946761431539     -2.77865295631754
  C           2.37816279468934      4.09967933088016     -0.99572972765923
  P          -2.17734919987272      1.57366486390695      0.99775379677466
  C          -3.50404235062208      2.88838855114981      1.26093146462303
  C          -3.46345064249000      0.16437647965908      1.01392860124401
  C           2.64974486873324      1.40734207041601      0.10506544863233
  H           2.60665752689248      0.35543862065924     -0.21094756873503
  H           3.69699684870479      1.71338381746648      0.16019728748054
  C          -1.49010057599807      1.52472071042568      2.70987631745856
  H          -1.82966486248744      0.63220373769147      3.24765708432302
  H          -1.84891590061586      2.40375879456496      3.26015397903170
  C          -1.33697844402055      2.25992010496510     -1.88049964732798
  O          -1.88621391565854      2.46015797514170     -2.87404631817092
  H          -0.58530397305945      3.41787049312995      0.15252939579298
  C           3.75220217045853      1.22225800668041     -2.81427557976725
  C           1.48742981446639      0.25256001481235     -2.96041359643824
  C           1.87493667884643      2.49341858726647     -3.92689100622232
  H           3.99117654724707      0.44707388786108     -2.09056811000877
  H           3.99494658149689      0.83540339065314     -3.80369160022486
  H           4.38653017707937      2.08167690353338     -2.63229390807417
  H           0.41662877080627      0.44189687763838     -3.00547465140512
  H           1.79563579046801     -0.22386988221824     -3.89050909581074
  H           1.68446299017497     -0.43980496610944     -2.14590952679415
  H           0.84750780052823      2.83612165281740     -3.79577766778744
  H           2.53421219246124      3.35515853950150     -3.99129358792394
  H           1.93509993251187      1.95886548925023     -4.87430823761502
  C           2.32805995097133      4.45428752392811      0.49408620959538
  C           3.81522826498114      4.29499128662906     -1.47441403100727
  C           1.44286512790814      5.04553697460802     -1.75093790051586
  H           3.08589196602419      3.91898778337944      1.06330616008551
  H           2.50551139530464      5.52135365016263      0.62324162528764
  H           1.34684589940354      4.22862038254348      0.90944560405651
  H           3.90487135849273      4.18678735583595     -2.55109536617820
  H           4.13078583539114      5.30729311631030     -1.22077941237727
  H           4.49980868298550      3.60508954624204     -0.98482551053837
  H           1.56267431271080      4.95900742932817     -2.82645953109578
  H           0.40646531209542      4.82062052183083     -1.50030106419983
  H           1.64865516237610      6.07811860055398     -1.47149990496613
  F          -2.97274919754801     -0.86591223813434      0.28953920827165
  F          -3.69231654995128     -0.32576592948954      2.25631221812446
  H          -4.43022044502854      0.45555699568949      0.57156269255264
  F          -4.31537691437442      2.88968202030725      0.17804694154419
  F          -4.29299477249131      2.59857884026964      2.32929281584981
  H          -3.09578584743785      3.90250579127224      1.39166705147933
  C           1.16008020464123     -2.09447086972843      0.23472198375717
  O           2.23793441372230     -1.69358678307445     -0.16155043189015
  C           0.78281136314893     -1.97377764708837      1.66527454160390
  C          -0.53752360606693     -2.04775527517010      2.10283730893443
  C          -0.82987580539171     -1.93521405271622      3.45000921703866
  C           0.18825869362510     -1.76769157014665      4.37531035556796
  C           1.50469901045113     -1.69726719237684      3.94915902427819
  C           1.79833766895049     -1.78835224967228      2.60284313133938
  C           0.16285678750216     -2.73625238258329     -0.68399783754357
  H          -1.33638020130495     -2.18446223353195      1.39371587818828
  H          -1.85730893826412     -1.99096106375326      3.78034606037303
  H          -0.04409602441600     -1.69677401314637      5.42802800648404
  H           2.30098075642212     -1.57355888897053      4.66837561626421
  H           2.81957830234454     -1.73535933185672      2.25409510207373
  H          -0.25430197404459     -3.63743533709002     -0.24258843496872
  H           0.63511323578242     -2.96726012767173     -1.63570049668379
  H          -0.64663530268109     -2.02839090933030     -0.86223873477425
