22
Coordinates from ORCA-job NEB_reactant E -44.016416899230
  C           1.60710963130144     -0.11482362333361      0.28294227004169
  C           1.44208508405081     -1.14417306736247      1.11637164605055
  C           1.72083645608550     -0.23391180639138     -1.18982002807992
  H           1.64861461507628      0.87625209648349      0.71345176679306
  N           1.31185738335322     -0.89154503209996      2.55130167712319
  C           3.06514574768414     -4.25458795133809      2.89783011676800
  C           3.22087704593391     -3.28468055039968      2.01372348307341
  C           2.49114839746977     -3.23807990861104      0.70561216560590
  O           1.29831948120630     -2.44490947208819      0.76964322187570
  C           3.72761828812837     -4.26000095763885      4.23983962237453
  H           2.42614599036022     -5.10567124444919      2.71764037416803
  H           3.86410360866090     -2.44365187618850      2.23893222544579
  H           2.12987289307147     -4.22827506008940      0.42444344666613
  H           3.14848006390849     -2.84325785294758     -0.08019694218127
  H           1.56187911110417     -1.25815907863401     -1.51595343809338
  H           2.70492414850325      0.10505690686216     -1.51384425579766
  H           0.98511070863319      0.41314052491677     -1.66505047209840
  O           1.12872047169938     -1.85102738138334      3.26695270608232
  O           1.39726851921523      0.25748223970253      2.93014033183661
  F           4.23832465076370     -5.48741269826621      4.52139851404563
  F           4.76737629415409     -3.39508139525855      4.30353312040610
  H           3.02288140963617     -4.00048281148491      5.04860844789399
