14
Coordinates from ORCA-job NEB E -29.210719588520
  C           0.11084105711006     -0.45632040007423      1.39372732246107
  C          -1.11845176120473      0.05865493476493      0.99582437689174
  I           1.43643389750216      0.91316639145294      2.32848450632119
  H           0.14337142631604     -1.42444303589079      1.87772806251573
  Br         -2.50415789457624     -1.31756911698678      0.70333943427131
  C           0.83821628694660     -0.77477545502551     -0.41693181484822
  C           0.70272818007957      0.47217780484170     -1.02311614610039
  C          -0.60324916900278      0.98011424840551     -1.21396760441478
  O          -1.24076991140190      1.12311514144232      0.33788959140840
  Br          2.59178807707520     -1.46534684754866     -0.13397959973462
  H           0.15164327466608     -1.57498424876793     -0.67353158573549
  H           1.52881979745658      1.16696361259658     -0.96658811338263
  H          -1.34765604611121      0.30512716681454     -1.62817597143509
  H          -0.68955721485542      1.99411980397539     -1.58070245821823
