14
Coordinates from ORCA-job NEB_reactant E -29.237807502700
  C           2.04834361392337     -0.49383793056109     -0.42744357438871
  C           1.23247335951506     -0.75901188645878     -1.43720101601891
  I           3.57812022073580      0.94585302710366     -0.30078441628153
  H           1.94625243771706     -1.04823228464622      0.48787304595963
  Br         -0.06589049344412     -2.14330019426558     -1.14471831379914
  C           3.53537226708759     -1.44012175547392     -3.47275852712998
  C           3.32890014625510     -0.13634228273918     -3.54397574547344
  C           1.99159582944665      0.50983309842281     -3.33626486423056
  O           1.04304863553548     -0.31526850851479     -2.68203056254208
  Br          5.23522384420439     -2.21414661102381     -3.74020210423821
  H           2.76814918518443     -2.16868776409786     -3.26042208848383
  H           4.13488182859372      0.54539823917136     -3.77120057767004
  H           1.52826046985302      0.71817125650446     -4.30774993975009
  H           2.10906865539244      1.46229359657896     -2.80812131595311
