21
Coordinates from ORCA-job NEB E -33.358979020700
  C          -0.10396552128994      0.77799194317435      1.21352322763121
  C          -1.41321531449786      0.40499662781220      1.54559101271374
  C           0.04839146069618      1.90044837229488      0.21862609875446
  H           0.63151367895212      0.81264037964233      2.00919968511150
  H          -1.57269932597960     -0.10627797449032      2.50403651744097
  C           0.39435665804118     -0.91771615699808      0.28046681935881
  C          -0.56227353044503     -0.91382652147279     -0.75302838755944
  C          -1.90337280353375     -1.09129802672656     -0.42945725737986
  O          -2.30734127436487      0.30848130450175      0.64863836096115
  O           1.73671157427408     -0.88495339415729      0.09509549988071
  H           0.19248065648795     -1.55648118609538      1.13677013514181
  H          -0.31814831824414     -0.41947061909791     -1.68169840563505
  H          -2.64158291910401     -0.95587924028382     -1.20464277879083
  H          -2.16851775835481     -1.83197253071931      0.31142218926934
  F           1.35865270495679      2.11508380758907     -0.13056352332341
  H          -0.29485497150036      2.83573531891109      0.67990470950623
  H          -0.51750608146199      1.72286704205073     -0.69946414211180
  C           2.24353856163077     -0.59891283163903     -1.19385314118834
  H           1.89480941349457     -1.34056148843461     -1.91944935962371
  H           3.32547108143588     -0.66312924332859     -1.09702086488320
  H           1.97755202880686      0.40223441746728     -1.53409639527430
