19
Coordinates from ORCA-job R E -36.703837129150
  C          -0.97863382144243     -0.12057769889684     -2.91077663755309
  C          -0.46720118630915     -3.02621729747751     -2.30839741017401
  C          -1.56322433004610     -2.33819533627207     -2.00438011608265
  C          -1.76275587586152     -0.91266865809885     -2.18490066182255
  C          -1.04192035318381      1.63718019628528      0.40378986848877
  C          -0.16789143617317      0.65771899015163      0.54548033864471
  H          -2.40770572759700     -2.85642929082987     -1.56823081783387
  H          -2.63106156064323     -0.48928138896728     -1.69785294667459
  Br         -1.31624252967557      1.72570196834734     -3.09089990445841
  H          -0.41064547350361     -4.08695171242860     -2.13592574502227
  H          -0.10502893971461     -0.44660757152854     -3.45134139768073
  H           0.41224635723038     -2.56533995518821     -2.72256675524106
  H          -2.05933241289584      1.52083335867005      0.73423833431600
  H          -0.43740407338767     -0.28653175564643      0.99775138126164
  H          -0.78525161658520      2.57979154979237     -0.04715963800275
  C           1.26485490710219      0.72478194796041      0.14962805343654
  Cl          1.68809146927758      2.16123693303980     -0.78919873236495
  Cl          2.27429304570076      0.70706379136893      1.63486230013140
  Cl          1.69380355770799     -0.71632807028161     -0.81045951336811
