19
Coordinates from ORCA-job TS E -36.689663953040
  C          -1.02940742057276      0.79525383054007     -1.37394693270019
  C           0.31938065448133     -1.56748376168529     -0.49949481786758
  C          -1.01281795936709     -1.53829943170168     -0.74401221831531
  C          -1.68064382271551     -0.38932264981153     -1.21747648091039
  C          -0.43587676605427      1.11484660090482      0.75421558250253
  C           0.41464142490689      0.12925612121065      1.15220027077233
  H          -1.63248751916121     -2.36290361438404     -0.42033623488429
  H          -2.76091451010854     -0.40618042090843     -1.25273359740697
  Br         -1.99671623295292      2.35368245163328     -1.85318671730272
  H           0.76161533290431     -2.43116324345580     -0.03281579698476
  H           0.01613182815657      0.87809209422536     -1.61477088274768
  H           1.00268183431249     -0.90844145317266     -1.00077597794707
  H          -1.46351667246326      1.08936533071271      1.06914937175736
  H           0.08117749486824     -0.67441151400986      1.78758136164992
  H          -0.04887231738709      2.07067490079515      0.44524698339097
  C           1.88664066836933      0.36121586189196      1.16292566741688
  Cl          2.46999828178770      1.16693909457325     -0.31077493954339
  Cl          2.29101699252270      1.44943983053521      2.55054055494010
  Cl          2.81796870847309     -1.13056002789318      1.39846480418027
