23
Coordinates from ORCA-job NEB E -43.665299724930
  C           0.04700628972647     -1.24859756867298      0.19282219776783
  C          -1.41230149593934     -1.33932966013798      0.30544480685890
  I           0.97129282297524     -1.64440910232817      2.10160104673215
  H           0.45810399422672     -1.97443445826994     -0.50348846229651
  C          -2.16988981879244     -1.88522884261395     -0.73805932057957
  C           0.40585764939274      0.22998504066408     -0.31715046730547
  C          -0.28576459068490      1.17075216397446      0.52687593405364
  C          -1.69326911770798      0.95522187519018      0.77162569096038
  O          -2.00513034963817     -0.45218319170801      1.10860679213031
  C           1.90814310472767      0.43253635830495     -0.55387777694032
  H          -0.12798645319839      0.18836205415799     -1.29065004999507
  H           0.24146401747910      1.93196887344613      1.07603830073437
  H          -2.26285012542323      1.09822561972468     -0.16438517432296
  H          -2.11062581773044      1.55323435420002      1.57976337777669
  Cl         -2.09079835976457     -0.20091706542273     -2.28508852231321
  Cl         -1.51867983720420     -3.17271580620697     -1.66718003509436
  Cl         -3.87039561150170     -1.97271077912482     -0.52693707384993
  C           2.62540030687295      1.33825115473137      0.44117121887174
  H           2.03865124156073      0.84810460461172     -1.55543328907008
  H           2.39529378136068     -0.54482042517000     -0.55164178456814
  H           2.47073801162338      1.00555540690893      1.46449535509844
  H           2.29251135847516      2.36907938515006      0.34647702632349
  H           3.69322899916452      1.31407000859099      0.23897020902768
