23
Coordinates from ORCA-job NEB_product E -43.709943676470
  C           3.07703269622533      1.51344241851834     -1.64138081466514
  C           1.65456935980684      1.06434792499878     -1.76983960088849
  I           3.59524134608696      0.60647535825475      0.26315646073356
  H           3.71725389659987      1.02650812978315     -2.37581024090936
  C           1.45210623812913     -0.18419045869234     -2.65572066178886
  C           3.21256503826494      3.03924938496558     -1.71326541165541
  C           2.83775270914054      3.73236083565840     -0.43598599576442
  C           1.75545387790915      4.47065486187931     -0.28752146307243
  O           0.70435223855346      1.62533594103413     -1.30983468610043
  C           4.60497207133285      3.46745484916593     -2.21104389348132
  H           2.48977089998606      3.34974853284476     -2.48062801796237
  H           3.52713052139525      3.60410623748501      0.38682992932702
  H           1.04743579821039      4.61371499738570     -1.08695107668444
  H           1.52487325325013      4.95237724243246      0.64679879583805
  Cl          1.59448642355585      0.48869128447872     -4.31182987620044
  Cl          2.66926601140906     -1.44409167375457     -2.44224743084430
  Cl         -0.15973772252552     -0.86424939543065     -2.42827592932930
  C           5.78065972925499      3.00152653174716     -1.36081847089279
  H           4.60784562606534      4.55885731590652     -2.25684577725876
  H           4.73528422055910      3.09629618100498     -3.23132426258309
  H           5.67829502012679      3.32427348994040     -0.32860263257899
  H           6.70055278977875      3.42723397689357     -1.75524428304313
  H           5.88343795688472      1.91937603349992     -1.37731466019515
