20
Coordinates from ORCA-job NEB E -32.996757809820
  C           0.01952330992569     -1.39764223457827      0.34627831196030
  C          -1.35866881178469     -1.27459301430387      0.12213849068909
  Br          0.58998624707544     -1.23773864428102      2.15703385941281
  H           0.58998194151020     -2.15296836351606     -0.17725612044965
  N          -1.86935026731836     -1.78521993746086     -1.06128653024835
  C           0.56208705697835      0.36835598616753     -0.56986559695129
  C          -0.16635993059264      1.26966971404574      0.21112988743196
  C          -1.56419924034241      1.21790550240957      0.14907781835623
  O          -2.03684293568104     -0.38614567897578      0.73711835240065
  O           1.91063373208891      0.32033595913030     -0.67187434380542
  H           0.13166225960065      0.05785885923402     -1.51979265814399
  H           0.28901884655995      1.67582069113631      1.10162968699843
  H          -2.02585901048333      1.10568499579301     -0.82417879079112
  H          -2.12483767808201      1.82991453112338      0.83919829479511
  H          -2.86453096967527     -1.67318938956938     -1.17453807445386
  H          -1.49478136079607     -2.65370918176397     -1.40351231246981
  C           2.68838454895691      1.04318676900794      0.26565420225677
  H           3.72393379496034      0.84617333387338     -0.00514053906227
  H           2.51340299001466      0.71068984401135      1.28986566585729
  H           2.48681547708471      2.11561025851669      0.18832039621712
