20
Coordinates from ORCA-job NEB_product E -33.046319017750
  C           3.14130992707394      1.14313722492451     -1.89913397421100
  C           1.75653204970305      0.73623299597446     -2.42061636760527
  Br          3.39650945637234      0.47094852238563     -0.07498023651561
  H           3.89316481633583      0.63310702190471     -2.51043760915634
  N           1.37824062216507     -0.51927831883781     -2.12246598696102
  C           3.35959935116683      2.66730287673593     -1.99670447326690
  C           2.77366753164498      3.38188403901902     -0.80621644826883
  C           1.50273910901251      3.72756136921508     -0.73067220131522
  O           1.09407201027060      1.47867295598079     -3.10644347567361
  O           4.69332216747923      3.01943573023889     -2.28932949129962
  H           2.81118538907748      2.97931052093773     -2.89658790113399
  H           3.45366940519453      3.59239094380391      0.00729516644367
  H           0.81522397516261      3.52426096885840     -1.53498544707039
  H           1.10225523265488      4.21650999851254      0.14086861701469
  H           0.47452872060408     -0.82930257967337     -2.43965064999011
  H           1.89700938401397     -1.11091820100555     -1.49531565557830
  C           5.69363676612730      2.63543628920072     -1.37095807806437
  H           6.59675011158710      3.14899500260240     -1.69603605069455
  H           5.87849072710015      1.55532847627523     -1.39064268355332
  H           5.46649324725351      2.93578416294679     -0.34468705309990
