18
Coordinates from ORCA-job NEB E -29.279314154510
  C           0.22803083282602      0.93586139762646      0.19495399643201
  C           0.40619049174121      0.44005286925646      1.48107462970312
  O           1.22598364675251      0.73468198966162     -0.71126074637975
  H          -0.32747329225840      1.86150044775270      0.07145007924108
  I          -1.02401908295866      1.31025092448982      2.89932761754466
  C          -1.13276401709539     -0.54966081563950     -0.41917028119480
  C          -1.17794298698928     -1.49088970529036      0.58669686588677
  C           0.03524837514708     -2.04808976029472      1.03207893993273
  O           0.85769349948675     -0.68785050521902      1.76811114384573
  H          -2.02576778860206      0.01050552569352     -0.65465020677662
  H          -0.46706793850741     -0.73239359746080     -1.24890258160797
  H          -2.00903047372123     -1.47406190766409      1.28043754756645
  H           0.79665854760554     -2.25873698408845      0.29139626228728
  H           0.01874987543163     -2.73771781211076      1.86403112789122
  C           1.15163058166320      1.52290773974254     -1.87756806525984
  H           2.05270552799273      1.30696022468820     -2.44784685610916
  H           1.12036414932694      2.58939191716717     -1.63349095310857
  H           0.27081005215882      1.26728805168920     -2.47666851989435
