18
Coordinates from ORCA-job NEB_product E -29.332821139810
  C           0.63354996595910     -0.99120761774129     -0.84001630738378
  C           1.67300335328883     -0.98705586946866      0.25582871404992
  O           1.22089348415455     -0.72093796626757     -2.08175515656324
  H          -0.15415748604328     -0.25627118198517     -0.60611591026772
  I           0.85046669423765     -0.37806933449760      2.17938286364893
  C           0.03134839290435     -2.40994962558146     -0.91895328707530
  C          -0.82774008626109     -2.75563179232113      0.25430854451867
  C          -0.63830109764305     -3.81025166356937      1.02488990180436
  O           2.81287746864044     -1.27034828995874      0.17670713580677
  H          -0.56497067516060     -2.42866522359330     -1.83526504658207
  H           0.84640976941567     -3.12656491193079     -1.03351516104838
  H          -1.65535745552882     -2.08331307726413      0.43964282284908
  H           0.17735726669310     -4.49511038841252      0.85940298558781
  H          -1.28923749343764     -4.03198074028759      1.85217866726288
  C           1.66015183751025      0.60895590481070     -2.24358724200874
  H           1.99964759169120      0.68909145737540     -3.27361370336790
  H           2.49014134548734      0.84833759029547     -1.57079049649860
  H           0.84161712409201      1.31777273039774     -2.06972932473267
