18
Coordinates from ORCA-job NEB_reactant E -29.310882310570
  C           1.24949806696466     -0.00024763397725     -0.20319724335602
  C           1.15852791783030     -1.00494862860944      0.66441411627515
  O           1.56111548825998     -0.20662936760488     -1.50909991306487
  H           1.07553191330944      1.01946549938810      0.11453042665700
  I           0.57500750681737     -0.50399889180508      2.66957816036494
  C          -1.13655911829134     -4.04891937502321     -1.15946470371709
  C          -0.66851943880621     -3.07810564058327     -0.39965990998433
  C           0.44248784566835     -3.24744693785073      0.58905643808783
  O           1.47647033542187     -2.28083214320923      0.42899044569546
  H          -1.94631365505425     -3.88868760519697     -1.84997847908560
  H          -0.73536118987206     -5.04785534730550     -1.11357788394723
  H          -1.07818959915454     -2.07781600198066     -0.45846675672616
  H           0.93588603666919     -4.21369387567025      0.47095225080287
  H           0.04093604274988     -3.17243599915340      1.61354586779619
  C           1.77473173144951      0.96124025971748     -2.26706069090458
  H           1.94449186948211      0.63104708354203     -3.28989741527322
  H           2.65298816870912      1.51005030489430     -1.91183043116979
  H           0.90167007784662      1.62161430042797     -2.23703427845055
