23
Coordinates from ORCA-job NEB E -40.042981527350
  C          -0.36836352177798      0.32549399463915      0.96343718522192
  C          -1.17379264900311     -0.80166363457330      1.32053523806180
  N          -1.04306163295983      1.61536430838946      0.85896334295113
  H           0.51884451620415      0.45796200613987      1.58157509581920
  C          -0.67799742608707     -1.67045962704915      2.31262600668468
  C           0.15710621255635      0.03846027447692     -0.76442453693763
  C          -0.64847073986380     -1.00828418243038     -1.27633485882590
  C          -2.06266246302391     -0.91631359807962     -0.93945670823244
  O          -2.10790292607257     -1.25346929041583      0.51522875636481
  C           1.66219036641067     -0.15983573710382     -0.76953861851874
  H          -0.12238540091857      1.01578272240081     -1.16005291135596
  H          -0.22653980445331     -2.00622372002061     -1.30036388122756
  H          -2.70186834946080     -1.67586575929284     -1.38303723001204
  H          -2.49173694839690      0.08222119013234     -1.05954548880248
  O          -0.40790141777720      2.57078207430589      1.24439622118107
  O          -2.17412085318937      1.65391507515730      0.42943975313075
  N          -0.30503772290121     -2.33498379839621      3.17363344033731
  C           2.42573495424923      1.13869197490777     -0.53709152284921
  H           1.94457316336513     -0.56788301900245     -1.74258309764679
  H           1.93683670509081     -0.90139771915999     -0.01570640267112
  H           2.16060729203859      1.59855042183817      0.41168323548429
  H           3.49547460210903      0.94755116541762     -0.53347883582810
  H           2.21047404386168      1.85160487771890     -1.32990418232898
