23
Coordinates from ORCA-job NEB_product E -40.078287416230
  C           2.69080499648793     -0.14394610213133     -1.09221273896374
  C           1.34885534837899     -0.78817675660204     -0.73137674471584
  N           2.56935858619575      1.32292447732203     -0.85907023318743
  H           3.48431589014097     -0.51922855761877     -0.43780132105671
  C           1.53752414094889     -2.11767314640989     -0.17294759950775
  C           2.96237543394947     -0.45756934936094     -2.58083186893294
  C           2.49459401683377     -1.85613471610509     -2.89007865683136
  C           1.44358001667408     -2.13174041052331     -3.63987258105883
  O           0.27804034354324     -0.27979650772316     -0.89258699605073
  C           4.44778098389154     -0.31091858518393     -2.92884390612340
  H           2.37148659180684      0.25633640232268     -3.16628637758089
  H           3.09327245983235     -2.65011916522940     -2.46270054130722
  H           1.14216742621814     -3.14476405554812     -3.84179427747675
  H           0.83838043700858     -1.35476828241106     -4.07753110308926
  O           3.06584751325948      1.73220882477427      0.16162189024356
  O           1.96914717017086      1.97117016641968     -1.67101489423038
  N           1.70735181067638     -3.15233934729538      0.28402502118223
  C           4.98202848800974      1.10476615448927     -2.74665327299487
  H           4.56332756345229     -0.60568106373026     -3.97408613908225
  H           5.03346245778849     -1.00800007435044     -2.32441898115799
  H           5.03647205542930      1.38302665531089     -1.69665881882610
  H           5.98664610722814      1.17407203135168     -3.15587177305552
  H           4.35338016207479      1.82425140823261     -3.26660808619582
