23
Coordinates from ORCA-job NEB_reactant E -40.082433997300
  C           2.03315881840241     -0.28591773190657     -0.10363802441503
  C           1.32420309403159     -1.40622013576510     -0.39795096759830
  N           2.26397986070385      0.83975458223407     -0.92852872991061
  H           2.49648442089358     -0.20618973467668      0.86909516409055
  C           1.12277263269490     -2.29563904294276      0.71153795817066
  C           3.38081383944006     -0.41041954626209     -3.56069044957769
  C           2.70776194712485     -1.37341060756616     -2.95147018665183
  C           1.21598042899731     -1.38484116392704     -2.79514417808644
  O           0.81457200622461     -1.88416186670104     -1.52043791692038
  C           4.86173080526302     -0.38723690874892     -3.73836848765828
  H           2.84970866203710      0.44402876382126     -3.96074708799657
  H           3.21759025493353     -2.23467417809691     -2.53682655598857
  H           0.75330479906570     -2.08911540182371     -3.49438590242004
  H           0.80561403221926     -0.38158534664375     -2.96391190357927
  O           3.29865610833981      1.44983893714765     -0.74558752454742
  O           1.39865989492709      1.16664310512324     -1.72232876858192
  N           0.96768544650509     -2.99403678267686      1.60325572093639
  C           5.44264320554850      0.94549677552132     -3.26659350240506
  H           5.09027754373850     -0.52113883375050     -4.80002747870576
  H           5.31652597797962     -1.21383583188421     -3.18889628035278
  H           5.17063427494742      1.13681949525006     -2.23099711563030
  H           6.52658129418057      0.93402855991160     -3.34513155869594
  H           5.05966065180162      1.76231289436310     -3.87362622347542
