20
Coordinates from ORCA-job NEB_product E -40.185210006600
  C           1.41881534533198     -0.87073205942714      1.42650068326589
  C           2.86260836504398     -0.83078911635806      1.98716968928747
  C           1.39734112286744     -1.04416333909808     -0.07779213469605
  H           1.00184306760262      0.12186706151606      1.64217776158170
  N           3.60988920877851     -1.91749712388566      1.73084072457406
  C           0.58850125825288     -1.89348882443667      2.24428979291409
  C          -0.85089100939864     -1.94532791585940      1.81065759683601
  C          -1.80506380548392     -1.21564979362092      2.35671482294666
  O           3.25570267306205      0.14440655668607      2.57958702151636
  O           1.20953059578763     -3.16007365131168      2.15163766126302
  H           0.63678414579701     -1.53856901784180      3.28821966449016
  H          -1.06788258519796     -2.64909159128501      1.01742728460366
  H          -1.60021455765347     -0.51773276228677      3.15194657646629
  H          -2.82368074377229     -1.27611690779012      2.01781149321358
  Br         -0.27571770403028     -0.36150155474745     -0.84950379702871
  Br          2.83711877817092      0.01131239648545     -0.89528276077680
  Br          1.59679335652525     -2.86099861947324     -0.71338998289394
  H           4.53270773735606     -1.94384050346427      2.13571169141517
  H           3.18208754342773     -2.79258054791362      1.47175530100161
  H           0.58942720753252     -3.83933268588770      2.43642091001976
