20
Coordinates from ORCA-job NEB_reactant E -40.176004194690
  C           1.31361306543818     -0.50658669451704      0.09843575379173
  C           1.94656076666206     -1.43464357530332      0.86676323813641
  C           1.91250631239800      0.08096845434306     -1.07980271716963
  H           0.33630881095716     -0.14999716284310      0.37138986651996
  N           3.19289545961009     -1.90946988940677      0.60837440180809
  C          -0.62658011594693     -2.33052078520362      4.59244860571906
  C          -0.32512077124148     -2.75235511154245      3.37111774867734
  C           0.03043680759933     -1.83111254565276      2.25138632014696
  O           1.40481406132082     -2.04400947490633      1.93407607450450
  O          -0.95097776269879     -3.10668715705003      5.64157740164244
  H          -0.66025647570789     -1.28217935842296      4.85410395245123
  H          -0.28930220110657     -3.80838185439699      3.14243746136941
  H          -0.12429862668433     -0.78823796355728      2.55200889592905
  H          -0.57974308968012     -2.04856615474159      1.36469579896238
  Br          0.70905546334462      1.29998615024558     -1.97809057516434
  Br          3.61065323585428      1.17356459500181     -0.65380286903740
  Br          2.52109560842009     -1.25699556715549     -2.42614932027966
  H           3.56716788869232     -2.53189362225417      1.30590812952528
  H           3.86059907346171     -1.32229723303084      0.13504713490134
  H          -0.90932751069255     -4.04008504960572      5.39457469756583
