14
Coordinates from ORCA-job NEB E -29.408381489990
  C          -1.01504811240697     -0.18702897623819     -1.04967867005347
  C          -0.38382511080886     -1.33805766440139     -0.58692054050788
  I          -0.15718781624165      0.70280183449999     -2.76762996696008
  H          -2.09602586476285     -0.15773859621513     -1.08685333674028
  Cl         -1.38684700181676     -2.34741261780906      0.47875020750318
  C          -0.52407774850089      0.96604728769581      0.48700451993475
  C           0.86067409844589      0.85168987474854      0.52232183744981
  C           1.40954442052501     -0.42101003262794      0.80525974364091
  O           0.86694847263434     -1.41302809346790     -0.44488688537452
  I          -1.38549566547859      2.86142863474253      0.10167354312153
  H          -1.11797762413198      0.41945754467081      1.20948308920044
  H           1.46225303016666      1.56525386935874     -0.02269469766586
  H           0.98448701850163     -0.97570215478015      1.63663670027720
  H           2.48257790387500     -0.52670091017666      0.71753445617429
