14
Coordinates from ORCA-job NEB_product E -29.455515153500
  C           2.98115960899790      1.44488496992983      0.10740464578784
  C           1.48547544865735      1.33033605805078      0.08914780026541
  I           3.81128857633284     -0.54085339731178      0.16829733255303
  H           3.33134051406892      1.89958457650736     -0.82144704986372
  Cl          0.74347412958682      2.86223487744542     -0.39669367553065
  C           3.38107757217388      2.31127429865156      1.30039278911316
  C           2.94554406990366      1.75499983687573      2.60798399535548
  C           2.20834768659541      2.42952472285139      3.47146604396666
  O           0.81399225703974      0.40195042046413      0.37081266532412
  I           5.54269917449353      2.60893071541013      1.30866551432211
  H           2.96662502518897      3.31092772988935      1.15070829218907
  H           3.27622859292306      0.74828428038372      2.82693683009034
  H           1.87835069763026      3.43758364853612      3.27757901599046
  H           1.90379664640768      1.99703726231624      4.40784580043669
