14
Coordinates from ORCA-job NEB_reactant E -29.441571585020
  C           1.11578618917594      0.94644242725228     -0.08722369587226
  C           2.20032421311049      0.88453688515597      0.67452099724220
  I          -0.74103455573297      1.34407648074646      0.78935095122022
  H           1.11807150786184      0.78239007415748     -1.14613550720410
  Cl          3.74407903872171      0.59838591411767     -0.07745068563770
  C           2.94499013773813      3.70135794965715      1.84436135518542
  C           3.71084649558280      2.81877771737292      2.45528776726187
  C           3.29653696267453      1.40028301224736      2.72403979652901
  O           2.14855102550311      0.98977058361419      2.00624605832425
  I           3.55315583745059      5.67371349589171      1.46540357762269
  H           1.94947764277887      3.48968034793893      1.49310672795289
  H           4.69976837743788      3.07217577966195      2.80765591356478
  H           3.01570843636750      1.28713785972863      3.77649206116038
  H           4.13813869132959      0.72777147245729      2.51514468265037
