18
Coordinates from ORCA-job NEB_product E -42.946788062820
  C           1.64082959583943     -1.32992407386845     -1.27413945227814
  C           1.00364552691205     -1.66520525564305      0.09749569233840
  C           1.40717372812793      0.13147998869418     -1.64451593355369
  H           2.72843469853682     -1.46663934207066     -1.19508149898358
  O           1.35496225576220     -0.88182026476546      1.10897198864925
  C           1.12806206575406     -2.30130432684250     -2.36383152025984
  C          -0.16378866198320     -1.87120018285212     -2.99630952904138
  C          -1.34591940303650     -2.21305206876792     -2.52219363514304
  O           0.26964980595462     -2.59252966679610      0.24551689447894
  F           2.11078943294749     -2.40103892213392     -3.32567842572691
  H           1.03254947094594     -3.29572718477183     -1.91010841001046
  H          -0.05070785601455     -1.25539534025076     -3.87721272890149
  H          -1.44521822121714     -2.82617633476158     -1.64233757589756
  H          -2.25387381736569     -1.87621154472473     -2.98972811105564
  F           1.75629156976136      0.42543049277043     -2.89208191218741
  F           0.13965870065386      0.52308203779297     -1.48116127614567
  F           2.14635002947405      0.94286644412722     -0.84625498952440
  H           1.94051107894726     -0.13973445513571      0.89885042324263
