18
Coordinates from ORCA-job NEB_reactant E -42.934317150730
  C           1.76264301500613     -0.02751110627501      0.00053317083179
  C           1.11171505394720     -1.14344400270759     -0.37235255819513
  C           2.04617191500430      1.05625309456242     -0.97096220608820
  H           2.10824546313962      0.13022990801431      1.00486798542358
  O           0.82787479829025     -2.15418991372543      0.47150927708631
  C          -0.10482664948764     -3.34574566842186     -4.27883445414134
  C          -0.38597826589564     -2.40961113589790     -3.39336898319821
  C           0.00215214810957     -2.50363724361431     -1.95547945088799
  O           0.70519648279176     -1.30657100583109     -1.62475293009643
  F          -0.48731498250807     -3.24487060141595     -5.55609666315424
  H           0.41871052071479     -4.27178784571367     -4.08589619066970
  H          -0.90384395749901     -1.51055132315212     -3.69012760245737
  H           0.63906192415796     -3.37536952216910     -1.77021451637225
  H          -0.89307730700217     -2.58132546870384     -1.32431319551600
  F           2.84326174328795      0.67483552885935     -1.98979275841789
  F           0.94026719768575      1.56391564675605     -1.55076360083314
  F           2.66654056699079      2.08982541081284     -0.38027782322343
  H           1.15390033326645     -1.96214475137711      1.35852249990963
