17
Coordinates from ORCA-job NEB_product E -42.354912834550
  C           1.62321280191045     -1.54794263521267      0.22180795684296
  C           0.84454196496299     -0.57786813174904      1.08242921431905
  C           1.41660017696934     -1.24666190892386     -1.26564492734509
  H           2.69280167861148     -1.41800456965026      0.42864029406529
  Cl          1.49719142342376     -0.52564281072953      2.71997989318905
  C           1.28883778527266     -3.00439306017093      0.66861985782661
  C          -0.01394480090335     -3.53785867108347      0.15641310218486
  C          -1.14726393061987     -3.43206341905841      0.82343808822750
  O          -0.09092507801420      0.08145471663653      0.79421647545531
  F           2.31914285624105     -3.81790637770885      0.26318320774647
  H           1.31376373439047     -3.02152585224474      1.76688782956575
  H           0.04655801128497     -4.04577676994922     -0.79435269951238
  H          -1.20551272133212     -2.93286771581112      1.77677396729423
  H          -2.06719395628130     -3.82719142726551      0.43179510495019
  Cl         -0.27892661110766     -1.30167041158813     -1.76755945187904
  Cl          2.02974356259087      0.40678480666027     -1.57373059454504
  Cl          2.34757310260048     -2.37366576215106     -2.27149731838573
