16
Coordinates from ORCA-job TS E -21.861406709360
  C          -0.54731517994414      0.75607689614307     -1.26300515887673
  C           0.72158017864664     -1.50652676022785     -0.04820845332449
  C          -0.60076010930602     -1.48310258394161     -0.32686454384073
  C          -1.22716916387159     -0.38446527361141     -0.95985294633194
  C          -0.00911250088521      1.40067534835115      0.73813215707897
  C           0.81896937754763      0.49922527684420      1.32081358643398
  H          -1.24562817676905     -2.24326257582437      0.09444990224090
  H          -2.30866509752277     -0.37647597101810     -0.98348735627976
  H          -1.08300580920324      1.60969626835722     -1.64771463373863
  H           1.14363555835744     -2.29478566875067      0.55340174068130
  H           0.50064858692272      0.72974401484058     -1.50386992629372
  H           1.42880790243129     -0.91858378624050     -0.60185535118850
  H          -1.03562829815119      1.43749982503920      1.05697348462493
  H           0.51233440923971     -0.21652240460388      2.06158499978224
  H           0.39344247849243      2.29467893128238      0.29574722091461
  Cl          2.53786584401534      0.69612846336059      1.21375527811756
