23
Coordinates from ORCA-job NEB E -31.544697088140
  C           0.47496049212571     -0.21895252159845     -0.19423740252119
  C          -0.61141111958573     -0.03860527032689     -1.12655196313783
  C           0.08202536306160     -0.95901796766584      1.10048039393596
  H           1.32261138575312     -0.71073446522535     -0.67307275428256
  C          -0.46874929692073     -0.28716719132315     -2.58827488399854
  C           0.90215714040737      1.30087559479554      0.15887755021352
  C          -0.22982908593626      1.95832887853804      0.72608907789289
  C          -1.59733974794217      1.57505740642638      0.29907292248056
  O          -1.71062484872659      0.61964937373950     -0.74565071589313
  I           2.70129115658948      1.33230060344425      1.52695788587146
  H           1.35288880302993      1.70270290414868     -0.74342858768797
  H          -0.17915380691642      2.39490212413132      1.70877301058350
  H          -2.12214125575191      2.44251620056298     -0.12392729018690
  H          -2.19138001257333      1.23991897969926      1.16039539736602
  C           0.92585711856431     -2.20933556900811      1.30493965073142
  H          -0.97210528513810     -1.24324233173633      1.04618697883338
  H           0.19531565690013     -0.30064336138517      1.96410670497579
  H           0.81346903358901     -2.89244870878626      0.46533948053157
  H           0.61551165545503     -2.72525683629704      2.21045747786228
  H           1.97682927737654     -1.94857807919889      1.40515146693430
  H           0.29587035618380      0.37180277127817     -3.01086192495551
  H          -1.41268824218632     -0.08999427777327     -3.08874196206793
  H          -0.16336473735849     -1.31407825643937     -2.78208051348109
