23
Coordinates from ORCA-job NEB_product E -31.599535689350
  C           2.54756768859050      1.16023775422692      0.21092865139533
  C           1.27117705990361      1.31135579827943     -0.62386034930871
  C           2.40951186517787     -0.12351324581648      1.04172235931551
  H           3.40692858636828      1.06682423401685     -0.45983909318869
  C           1.50258382702547      1.48726548907883     -2.10005905520058
  C           2.66128123841457      2.47435415978206      0.99584732847442
  C           1.80927449234427      2.55494542199793      2.20664584654832
  C           0.85573272584338      3.45644688407130      2.35731731279853
  O           0.17756447667203      1.29925172738603     -0.12282854631577
  I           4.74610863698019      2.90507898160640      1.55497081108839
  H           2.42615414413848      3.30254931306016      0.32336186047215
  H           2.01262504913086      1.83476818933371      2.98595480541143
  H           0.63762916979893      4.18816253323864      1.59640440485602
  H           0.24310196195240      3.48898905130480      3.24101671066455
  C           3.63246004773678     -0.47817097730243      1.87677967180887
  H           2.22162097378542     -0.93763103402647      0.33500955176314
  H           1.52471400933623     -0.04015812317251      1.67526234109262
  H           4.53159360166134     -0.48140395088790      1.26393548153284
  H           3.50712191873542     -1.47144764838858      2.30206117603145
  H           3.77866843353066      0.21836865818479      2.69738984779698
  H           2.17006990671474      2.32898605775222     -2.27512092780232
  H           0.55965528955720      1.65198175014620     -2.61469374511675
  H           1.98095489660136      0.59345897612811     -2.49690644411772
