17
Coordinates from ORCA-job NEB E -29.254570538950
  C           0.69945296654320     -0.47504537093433      0.67254190217606
  C          -0.70704227579793     -0.52901414419843      0.42975393949494
  I           1.24676439482374      0.80833424301916      2.40850696171901
  H           1.12105396198177     -1.44196927653909      0.93317821407382
  C          -1.47101055434234     -1.80857780855842      0.46791576949493
  C           1.39904903888360      0.11778228817093     -0.63449380589862
  C           0.77888445901993      1.38882759157074     -0.96873644514096
  C          -0.63913997327567      1.60770720235790     -0.61010404187565
  O          -1.36287538407478      0.53163754059488     -0.04526997734655
  Cl          3.17485944301915      0.28103664977805     -0.38452943435199
  H           1.30856106026407     -0.67613004562563     -1.38288536146716
  H           1.39868512302567      2.26883388000529     -0.89835316344664
  H          -1.24070939333090      1.86370569364169     -1.49215219644219
  H          -0.71478619882251      2.46225680412325      0.07722593130746
  H          -1.05590094106007     -2.52854129492460     -0.24136879418634
  H          -2.50783341114209     -1.61483370714110      0.20840401275890
  H          -1.42801231571483     -2.25601024534032      1.46036648913097
