17
Coordinates from ORCA-job NEB_reactant E -29.297593383840
  C           2.08536751690539     -0.12234732356332     -0.30905503961280
  C           1.52833744084500     -0.47054696342697     -1.46567442615899
  I           3.10201711099397      1.62771265654159      0.31214103263575
  H           2.02359395011781     -0.81325026799761      0.51189562065144
  C           0.84294540539798     -1.81192168326937     -1.56001417004817
  C           4.14044380815911      1.30814592078634     -4.42962154341324
  C           3.56434286474606      1.06323155773789     -3.26589823885073
  C           2.11085448411372      1.32892789388926     -3.00797469534148
  O           1.40809304988645      0.14821553354813     -2.66357619680463
  Cl          5.80375177242190      1.00685743364640     -4.72598232801808
  H           3.61861177890651      1.73064947876094     -5.27491651636238
  H           4.12995969189129      0.63173432828955     -2.45356978233475
  H           1.62284289701713      1.67465876963388     -3.92301132258575
  H           1.99051524992478      2.09852268098548     -2.23894015806559
  H           1.38252191419509     -2.44173657236364     -2.26502608824268
  H          -0.16421323160266     -1.66813208056980     -1.94486270280610
  H           0.79551429608046     -2.30842136262872     -0.59721344464183
