17
Coordinates from ORCA-job NEB_product E -29.312689126350
  C           2.89877344315144     -0.53776830365414     -1.91208377080284
  C           1.37785774604283     -0.58843525764340     -1.96648090389369
  I           3.39113284622028     -0.23868630202696      0.17989873343157
  H           3.33017767033462     -1.50927072327159     -2.15672473174577
  C           0.79052262247701     -1.91716938920955     -1.57982068914456
  C           3.48520621347270      0.53838345044754     -2.80638498606353
  C           3.09099752197235      1.93431907210699     -2.47268469446113
  C           2.66646251530354      2.80558859743571     -3.36864240442189
  O           0.72019522243915      0.35734205607442     -2.30871949590275
  Cl          5.28962725603035      0.41950308335829     -2.73048416777589
  H           3.21561880375502      0.30378448420910     -3.84171260425566
  H           3.20924379655665      2.21887769079862     -1.43636032960187
  H           2.54927534237867      2.54547019860334     -4.40762363862512
  H           2.40412515953163      3.81115454293790     -3.09206190349806
  H           0.89836919598000     -2.59773297992676     -2.42455922200007
  H          -0.26781498361644     -1.80323099394217     -1.36015268245376
  H           1.30402962797019     -2.35042922629735     -0.72530250878499
