21
Coordinates from ORCA-job NEB_product E -36.999760711250
  C           3.29815238927876      1.65017401171499      0.28703476488662
  C           1.78759893544077      1.48770847633978      0.12477661432837
  Br          4.09001169681805     -0.12733960238864      0.13686502316848
  H           3.74582821255164      2.23372606561661     -0.51980611928806
  O           1.10142399662539      2.49532215983796     -0.42454156393480
  C           3.60268270848309      2.28185259664614      1.65366739000271
  C           2.97895596873509      1.49738923236665      2.77372023424638
  C           2.06972652184084      1.98547656685338      3.59372389610030
  O           1.20508166151700      0.51515310362977      0.50343418991295
  C           5.11776858256221      2.40952816898801      1.85809063311719
  H           3.18586679105732      3.29763640125534      1.65771309673141
  H           3.32922545705018      0.47967985013089      2.87520223706605
  H           1.70697823747967      2.99756331177515      3.51198326516386
  H           1.65088004513340      1.39205695899089      4.38659358978136
  C           1.69824544471289      3.65720467875209     -0.96939304953197
  H           0.86460256247865      4.27506164566837     -1.29961350448606
  H           2.32547976023929      3.41800604041895     -1.83211976865265
  H           2.27930687816361      4.20888200752749     -0.22730086006083
  F           5.36898167810299      3.30385875462792      2.86352410947495
  H           5.61497977888624      2.79735587138602      0.96104717928366
  H           5.56712269284292      1.45640369986224      2.15219864269006
