30
Coordinates from ORCA-job P E -34.009590637390
  C          -1.29228416158988      0.24406231966319     -2.45440130366020
  C          -0.21449265566003     -1.94731503007928     -1.13772655829226
  C          -1.41834342248926     -2.13510718584577     -2.00681911628660
  C          -1.90916484183027     -1.10878619464062     -2.68162162684013
  C          -1.17513355612613      0.41397324001556     -0.93039106160775
  C          -0.23875128445223     -0.63782450956818     -0.31436378283783
  H          -1.82838994588915     -3.13065323950302     -2.09603888163061
  H          -2.75603925402419     -1.20234111185241     -3.34314600420095
  N          -1.95426776627551      1.38114337369458     -3.07893450331714
  H          -0.09270205535365     -2.80194197751884     -0.47175967309316
  H          -0.27028546563080      0.23953696559713     -2.85905234613420
  H           0.66038665213848     -1.91896687143536     -1.79669401198869
  H          -2.16806039874244      0.30242960774630     -0.49267801724131
  H          -0.61751053623529     -0.87460874669853      0.68571418137882
  H          -0.81748822694014      1.41938824486862     -0.70803184811328
  C           1.17824249331299     -0.07523208645521     -0.14849396894921
  C          -1.77187250704618      1.40373568368844     -4.51435079605463
  C          -3.34750894564484      1.55306455956219     -2.72627332130224
  H          -0.70791097041803      1.35517319941889     -4.74341211387862
  H          -2.16606694576914      2.34263511898884     -4.90303049299627
  H          -2.27772166649430      0.57569917936032     -5.03471716518119
  H          -3.45037551318445      1.59595693200105     -1.64511927123075
  H          -4.00268119028926      0.75718719217453     -3.11145052909934
  H          -3.69057848367286      2.50225500466859     -3.13861213036271
  C           2.11422928048833     -1.02133815017465      0.59546416886975
  H           1.11820761763486      0.86257843442524      0.40896610613044
  H           1.59445198095669      0.15315335840154     -1.13242515528645
  H           1.70268591588670     -1.27147116442133      1.57115537669867
  H           3.08398341287861     -0.55150989599467      0.74427462101097
  H           2.26646244046137     -1.94379625008714      0.04133922549691
