30
Coordinates from ORCA-job R E -33.935306814470
  C          -1.41355146137129     -0.71942466816082     -3.00519968087705
  C          -0.15399737499749     -3.37370246793942     -2.27688014349283
  C          -1.35818440936792     -2.93365509397833     -1.91169797504199
  C          -1.98262133885985     -1.67771508789410     -2.25096925538623
  C          -0.80500500928015      2.14768738824341      0.25457009581661
  C          -0.43909277023351      0.95324242418104     -0.17088813655719
  H          -1.95801292140543     -3.57075212385766     -1.27169594330216
  H          -2.97226634865175     -1.53115756750741     -1.84378783717009
  N          -1.97095391733551      0.46017779537424     -3.41221751679481
  H           0.21353735220485     -4.33078641740522     -1.94956742425567
  H          -0.41782509353127     -0.87744983399730     -3.39479679810850
  H           0.50661656369457     -2.80863958767681     -2.91168054674090
  H          -1.83076951571494      2.38736702860617      0.48128379393054
  H          -1.17215042546239      0.16872089634334     -0.30763390141167
  H          -0.09117006645104      2.94303060418172      0.39978548822646
  C           0.96417075322134      0.55832405984905     -0.50220146639568
  C          -1.09684022322378      1.54165229429654     -3.79262674734624
  C          -3.25190988560087      0.86737196833988     -2.89254568208495
  H          -0.80492844739158      2.15361605524477     -2.92895396416936
  H          -1.60472900790019      2.18272425607399     -4.51557858363282
  H          -0.19686946766434      1.14324721212166     -4.25734027359083
  H          -3.19640857941743      1.16626592711666     -1.83854009511965
  H          -3.96276464753560      0.04867489943251     -2.99199156412564
  H          -3.61650718091899      1.71314470082063     -3.47458154581533
  C           1.33967065026344     -0.76128991614773      0.16776506045807
  H           1.65534054057957      1.34767017187215     -0.19859585724626
  H           1.04824134132090      0.43481069073399     -1.58616880738433
  H           1.25283326857241     -0.67624548623831      1.24880311302452
  H           2.36415618811390     -1.03366356105913     -0.07568544696844
  H           0.68114143434432     -1.55736656096949     -0.17345235843759
