30
Coordinates from ORCA-job TS E -33.913658224840
  C          -0.80481031745835      0.00646471108143     -1.09716983074373
  C           0.58788037409732     -1.97647889361104      0.45033696897366
  C          -0.74628349873374     -2.06412479140237      0.16413966828148
  C          -1.43584229241681     -1.10028609600310     -0.58428255102709
  C          -0.11502978924825      0.77005722612208      1.03136520535397
  C           0.70980165548705     -0.14502454097861      1.61976529369808
  H          -1.34530741527473     -2.79304263523581      0.69476886254524
  H          -2.51318328838732     -1.16624549503510     -0.61403837267067
  N          -1.42229505150889      1.08004842618116     -1.67057996732668
  H           1.02336737907530     -2.72782750062919      1.08930546820327
  H           0.25721120365219     -0.02807070531271     -1.27767231891773
  H           1.27027004562439     -1.52122993387000     -0.24432144093343
  H          -1.15122002446320      0.84130183876216      1.30579844701896
  H           0.33910713618475     -0.71374180098206      2.46034372863942
  H           0.29246108014457      1.59738550541694      0.47751708541842
  C           2.20293207325976      0.09789475318713      1.61102117726931
  C          -0.72253778829913      1.90951177611859     -2.61318988303640
  C          -2.85225109781358      1.22725239197690     -1.63605335268257
  H           0.35156314662339      1.78875177278698     -2.48813164784801
  H          -0.97537567349748      2.96018745491897     -2.44697858869790
  H          -0.98117409087009      1.65518241948685     -3.64945947314141
  H          -3.22717795319507      0.93483214563960     -0.65630845832757
  H          -3.35314902717363      0.61967054507952     -2.40081899065652
  H          -3.10770031376236      2.27367077772052     -1.80557815874334
  C           3.03672304715213     -1.00273205565493      2.25598581890022
  H           2.38189838903759      1.02460485949720      2.16933640130245
  H           2.54963572168420      0.27528258402872      0.58970327521788
  H           2.65028867575836     -1.23948076308103      3.24506183173900
  H           4.06937697614979     -0.67532126866922      2.36288327257442
  H           3.03082071817184     -1.90849270753962      1.65725052961726
