17
Coordinates from ORCA-job NEB E -41.192122447890
  C           0.99195997278737      0.11709097878926      0.50823546482914
  C           0.07438280836177     -0.59977200592346      1.29515994680943
  C           0.96359734864025      1.62537668107076      0.61236892062297
  H           2.02001340715564     -0.23806525944840      0.52990235034239
  Br          0.66349479108420     -2.40015987951183      1.78713237464885
  C           0.32140986230638     -0.50829559432119     -1.23723997624860
  C          -1.05255845569979     -0.26339026450403     -1.19208424007815
  C          -1.82080838422661     -0.91703239834021     -0.19794380703931
  O          -1.17041953647757     -0.41698191420649      1.25475355006958
  Br          1.31300801629168      0.31322281918854     -2.64296346005889
  H           0.68203072225065     -1.52145288554127     -1.09002375024853
  H          -1.44137708400558      0.63017328549678     -1.65407184249503
  H          -1.66954739773048     -1.98655525493810     -0.07135084675295
  H          -2.85671544414121     -0.61827871811712     -0.10541089677205
  Cl         -0.56793767531686      2.38359071671350      0.17464531378491
  Cl          1.27483562197281      2.02709854632714      2.34966012428036
  Cl          2.27463142674735      2.37343114726612     -0.32076922569413
