17
Coordinates from ORCA-job NEB_reactant E -41.225626828700
  C           1.62396155732033      0.03771747357573      0.09628475858926
  C           0.95896585476646     -0.86211045460009     -0.63841125122772
  C           2.05603238695636      1.33739231936193     -0.47219115778064
  H           1.86358292809671     -0.16295386596094      1.12557878695334
  Br          0.45038941699309     -2.50188847626273      0.18543597227973
  C           0.08470523005579     -1.65983170747992     -5.14159934215682
  C          -0.27308868046892     -1.04303940730854     -4.02952765903085
  C          -0.05823040748732     -1.62697329131062     -2.66967462420318
  O           0.64400898659956     -0.65681119489396     -1.90504148848447
  Br         -0.21596843620428     -0.92700236030414     -6.84907078721602
  H           0.55148166333471     -2.63229893622082     -5.16960547392791
  H          -0.72801037492493     -0.06372125800697     -4.04715223720856
  H           0.51838736134580     -2.55854894255474     -2.72688110066994
  H          -1.02926434506091     -1.83699744086875     -2.19792039380507
  Cl          0.65372415399268      2.28551712471200     -1.05565256962102
  Cl          2.90671002525244      2.29619328738313      0.74741456969225
  Cl          3.15321267943242      1.09975713073943     -1.86918600218238
