17
Coordinates from ORCA-job NEB_product E -41.236173069920
  C           1.63085397014153     -0.38985824922840     -1.58857020207472
  C           0.91435434709404     -0.94972836143989     -0.37945425245399
  C           1.40249974861824      1.12298027677509     -1.67358255403597
  H           2.70777939888691     -0.54159302755859     -1.44531320979505
  Br          1.75110276877951     -2.61962206124491      0.21502362225741
  C           1.19626710494457     -1.23055126622548     -2.81528954933028
  C          -0.06157726293271     -0.79859002395586     -3.48793450076520
  C          -1.18325902933376     -1.49088193656695     -3.40893620791111
  O          -0.03695544194150     -0.55456186556473      0.18806055129106
  Br          2.65528970927483     -1.28059640181156     -4.14696510915899
  H           1.11225400124703     -2.27253559428445     -2.49217721877692
  H           0.00496344373196      0.09783114900563     -4.08632202766782
  H          -1.25868911505288     -2.39721700096975     -2.82996882260826
  H          -2.07621965028650     -1.16972751150957     -3.91450766701506
  Cl         -0.31102676217283      1.58191552081073     -1.73041780144217
  Cl          2.11825058159818      1.85184102474696     -0.19649814583096
  Cl          2.22741218740337      1.81819532902173     -3.08204690468197
