20
Coordinates from ORCA-job R E -36.229115401080
  C          -1.42957584873828     -0.43259043884671     -3.29689512728524
  C          -0.09066603799474     -3.02165323224713     -2.52284615945644
  C          -1.39230590996653     -2.75392137343725     -2.45913807765581
  C          -1.98687789761468     -1.44253401904140     -2.62842975302735
  C          -0.85965386264985      2.00279785836847      0.32415173076848
  C          -0.66221008910656      0.70049293374574      0.15200490837754
  H          -2.09716863246597     -3.54490651683931     -2.23855022866871
  H          -2.96577378806107     -1.31822517171590     -2.18054613273061
  C          -2.03762735318000      0.89190856707965     -3.50369677789432
  H           0.27836232467937     -4.02217605210704     -2.37755752174111
  H          -0.47312233759968     -0.55549587185141     -3.78681752282258
  H           0.64750325287030     -2.25426462949241     -2.68211524175978
  H          -1.65398868545345      2.37118320887100      0.95114229289093
  H          -1.27599212896131     -0.04458045549275      0.64348053900912
  H          -0.24380479095704      2.73803221155075     -0.16785864594947
  C           0.35936738860533      0.18832472373657     -0.67294944429702
  Br         -3.46693273452549      1.32781401435138     -2.25874714493146
  Br         -0.69430649432660      2.31290878471153     -3.36142178336521
  Br         -2.80335403321583      0.99118591660791     -5.34198621038719
  N           1.17296765866207     -0.24533045795169     -1.35566369907378
