20
Coordinates from ORCA-job TS E -36.214007295860
  C          -0.49165505423130      0.41977518153639     -0.99638217875690
  C           0.85333349345467     -1.87273022400371      0.11144930293693
  C          -0.48332314330245     -1.84406878642280     -0.10595405798842
  C          -1.14427147352715     -0.73749159865839     -0.67939599747826
  C           0.20588215377144      0.99670729684737      1.08918066194543
  C           0.88776198154171     -0.04765576975189      1.63959118129986
  H          -1.10812486420597     -2.61886856438816      0.31543069482892
  H          -2.22637899743962     -0.75043049105686     -0.68158527729433
  C          -1.22726043848667      1.57729636333132     -1.55891513248758
  H           1.30107641541556     -2.68141947677959      0.66483717932911
  H           0.55833269530960      0.40473685876117     -1.25134766042763
  H           1.54150295742421     -1.26907787690318     -0.45330128186940
  H          -0.81125795877241      1.18613995741491      1.38753058556638
  H           0.41085556368923     -0.72791037518387      2.33025423943813
  H           0.75345202517156      1.81845955095808      0.65816914242339
  C           2.29629041708395     -0.09692867734381      1.59610319042961
  Br         -2.85392172530366      2.00271008505239     -0.56568886252399
  Br         -0.12809399171449      3.19019282465800     -1.63452429351290
  Br         -1.77683728262322      1.16797110481974     -3.43926071101044
  N           3.44263722674501     -0.11740738288710      1.57380927515208
