17
Coordinates from ORCA-job NEB E -37.294057091460
  C           0.42590319677212      1.00130352827810      0.37380963826317
  C          -0.95880608472325      0.45868317803556      0.34430184967748
  Cl          0.76106915152343      1.92920461977483     -1.13766450626506
  H           0.57686558106409      1.67941286311403      1.21393172653838
  N          -1.89619705625073      0.89332363262686      1.29708235158225
  C           1.28908882778923     -0.27321215932062      0.41633823138608
  C           0.39544072027174     -1.30736713212433     -0.19600445288209
  C          -0.59899329791270     -1.00553573315662     -1.26062287885921
  O          -1.48667758686310     -0.02890273951220     -0.79917982121633
  O           2.55404310779802     -0.22884505022569     -0.16876962426730
  H           1.46842242898068     -0.52245824687234      1.46864679997148
  H           0.80876861929307     -2.30828505144268     -0.21469848922419
  H          -1.20800309999087     -1.88176830869099     -1.50309212911415
  H          -0.09293355727089     -0.69110818875521     -2.18869319515241
  O          -3.06604986921015      0.60920856972537      1.11601066947359
  O          -1.45648343135562      1.48503482489759      2.27749318984660
  H           2.48454235008493      0.19131139364836     -1.03888935975830
