17
Coordinates from ORCA-job NEB_reactant E -37.347471509580
  C           2.20221711841786     -0.33768302952160      0.37404308418784
  C           1.48069404957283     -1.34889782755693      0.87431108550522
  Cl          3.14783021829679     -0.33984987274513     -1.04558416133831
  H           2.20258727280215      0.60068449364836      0.91008541924562
  N           0.75020470230511     -1.07210337263105      2.12248772786306
  C           3.95078345341157     -3.35183363923491      1.06394700569553
  C           3.48403252273154     -3.32479376958842     -0.17756842198614
  C           2.02478210756662     -3.22371011632469     -0.51273045990859
  O           1.24789801291843     -2.60927994018384      0.50718759073219
  O           5.24762429463752     -3.43012866604294      1.41963513925798
  H           3.30738460568892     -3.30622248614151      1.93122371496420
  H           4.15243666104336     -3.38293142828997     -1.02486486419854
  H           1.57712916315805     -4.21943325012169     -0.60658590373341
  H           1.88905980411593     -2.69557340385057     -1.46257149568939
  O           0.20893416888423     -2.00824844902116      2.64977318927730
  O           0.74903638604019      0.06762628366373      2.52943788001917
  H           5.80896545840889     -3.48622152605768      0.63527347010625
