17
Coordinates from ORCA-job NEB_product E -37.336826222820
  C           3.19824904311079     -0.97357507515695      0.83092481349872
  C           1.72016190981426     -0.95274814819703      0.69134771497014
  Cl          3.91882383474711     -0.01660083656610     -0.49842995338263
  H           3.51538731070637     -0.52966938794628      1.77819973705468
  N           1.00023675884907     -1.44256027830984      1.97989904378766
  C           3.75142663435821     -2.44709614519084      0.77189670893499
  C           3.20669070626697     -3.13572499411506     -0.45068333755377
  C           2.24505337262159     -4.03763899286508     -0.41278886934604
  O           1.03422420485048     -0.66583445833162     -0.22776357376836
  O           5.13704050473508     -2.43409540404635      0.82711859358881
  H           3.42143911177064     -2.95339104504074      1.68588877468830
  H           3.65896623404719     -2.83687987730345     -1.38621451606510
  H           1.79104854441878     -4.34979318912221      0.51381792122312
  H           1.87401499061648     -4.50632110966909     -1.30702174529652
  O          -0.19124136428006     -1.53367742429718      1.89768388559478
  O           1.69434484309489     -1.69431430769715      2.93518703235189
  H           5.48333336027214     -2.00177932614504      0.03333776971932
