22
Coordinates from ORCA-job NEB E -37.897184252800
  C           0.14409786990503     -0.68249926603220      1.11625753734531
  C          -0.75128650528428     -1.00882554954575      0.08498641708214
  C          -0.34370022807115      0.02476902234119      2.23972380630365
  H           0.90831046248895     -1.41940333044283      1.33789507656677
  O          -0.42573087970789     -2.11090432710282     -0.64024286120784
  C           1.10197150819602      0.84867793406704      0.13318633950416
  C           0.02380440294011      1.67307425934824     -0.15134339595583
  C          -0.96972085707745      1.20669787072672     -1.03921824909434
  O          -1.64413207436923     -0.19764362107864     -0.32916684719096
  C           2.19807483120322      1.30448596465831      1.05940330360220
  H           1.48282786792441      0.19824617094816     -0.64841254371795
  H          -0.24536884956257      2.42165665794560      0.57900169647885
  H          -0.63359970219732      0.75484254590207     -1.96637170718343
  H          -1.86113884883699      1.80727618689307     -1.15213924687935
  N          -0.74156887238347      0.58214709789160      3.15727676658298
  C          -1.25415467126586     -2.40857435409571     -1.75033310055479
  H          -0.98869030958118     -3.41709713128836     -2.05847928824388
  H          -1.07586881422345     -1.71134026094734     -2.57267381433642
  H          -2.30824879947291     -2.36275261983216     -1.46860122525632
  F           1.76176392427534      2.22568361229768      1.96866587834802
  H           2.98742715620823      1.79567426609870      0.47321075139539
  H           2.63493138889243      0.47580887124742      1.62737470641164
