22
Coordinates from ORCA-job NEB_reactant E -37.934591576550
  C           1.79371758220517      0.61320339924130     -0.02327327577347
  C           1.65815533353628      0.51305755122126     -1.36496517637003
  C           1.87576747131333      1.76637823281780      0.75041956583455
  H           1.81753228487000     -0.31572850853570      0.52729328370322
  O           1.54731256668762     -0.72698690982640     -1.87291701111523
  C           3.88116445984432      3.77798823475569     -0.78709285494535
  C           3.37190561483715      3.01603406494087     -1.73895625469336
  C           1.90342720550080      2.82336088893915     -1.96971412954045
  O           1.59031804112989      1.47602695831001     -2.29699053456582
  C           5.34227863674766      3.98359245950191     -0.56289519445912
  H           3.24945602490440      4.29999075215391     -0.08355544896973
  H           4.01764343112880      2.48714407661159     -2.42704161262213
  H           1.59006330457878      3.38056306488329     -2.85996541444016
  H           1.31819502675973      3.16310287608171     -1.11078803943813
  N           1.93800929734587      2.67738876115658      1.45173624424415
  C           1.41775110523787     -0.86465515547033     -3.27621336511538
  H           1.35929229297758     -1.93586247701392     -3.45576120788269
  H           2.28275896222256     -0.44537166814971     -3.79505747534916
  H           0.51116799441053     -0.37444055489144     -3.63791135047331
  F           6.10964620337400      3.31171278632985     -1.48127292102136
  H           5.63278210217307      3.61435550601494      0.42824311841899
  H           5.60665505821459      5.04514566092764     -0.64532094542601
