23
Coordinates from ORCA-job NEB E -49.372262884260
  C           0.28175851674033     -0.72844785582826      0.69772360651804
  C          -1.05613963741877     -0.97163695556012      0.35224475730495
  C           0.55544606060170      0.02674715366384      1.97949077602718
  H           0.98133501268261     -1.54644251949736      0.54959415683029
  C          -1.42135932737873     -2.10565728211600     -0.57649180063137
  C           0.65927682296206      0.51704194326112     -0.72889061506608
  C          -0.29511271507601      1.52362750309160     -0.55161298417959
  C          -1.67132901527033      1.15415469925033     -0.64373455660574
  O          -1.91830337460019      0.00661133524691      0.44834024375944
  C           2.11277947794095      0.92248807110722     -0.64765223775878
  H           0.52956287140853     -0.18661364345997     -1.54685717110246
  H          -0.02879471473387      2.39400920150474      0.02896354474264
  H          -1.96676487166478      0.63843176926184     -1.55589542795599
  H          -2.38686590129447      1.91555441063394     -0.35715916680908
  F           1.89666286105392      0.08675879138912      2.23016181531132
  H           0.10860127600120     -0.51780603337996      2.82033005151672
  H           0.17255135008808      1.05108512527022      1.96368725523860
  F          -0.41296658977372     -3.02027875890134     -0.68443179439100
  H          -1.62725045211287     -1.72739778024959     -1.58993018305199
  H          -2.30979852022910     -2.63088348496653     -0.20834484872540
  F           2.35937449034062      1.86897634516555      0.25931464412863
  F           2.93202091047781     -0.10368911396181     -0.40328582724520
  F           2.50531546925504      1.43336707907449     -1.83556423785514
