23
Coordinates from ORCA-job NEB_product E -49.409883837970
  C           2.84585334043791      0.32094868907727     -1.00872437722256
  C           1.39673086624314     -0.08442726421147     -1.27791984119306
  C           2.98713132348487      0.80242762063698      0.44087747016272
  H           3.50496681969631     -0.54524112652096     -1.13428908586522
  C           1.26714778858563     -1.26148047163521     -2.23057285818480
  C           3.22466050283303      1.37911008954365     -2.07760076535333
  C           2.31901986896965      2.58142790033871     -2.06462907009886
  C           1.47307803407112      2.85936021428950     -3.03718774750165
  O           0.46139248202368      0.47279585881474     -0.78199113308545
  C           4.67959947881843      1.83230400597601     -1.92683123951990
  H           3.17536199103650      0.90297258226003     -3.06426030960002
  H           2.40174825163526      3.22733324782664     -1.20334747916572
  H           1.37589703274462      2.23609010644216     -3.91087024816878
  H           0.83697554981735      3.72499316192892     -2.99547689505276
  F           4.25927920762290      0.56621639354256      0.88470113777908
  H           2.31455085910352      0.23619803892206      1.09351001377079
  H           2.79323010877856      1.87044153904244      0.55789167615413
  F          -0.02115596562109     -1.43588136642718     -2.63650585718982
  H           1.57695037868009     -2.17963223821758     -1.71477168771296
  H           1.87983546901857     -1.12005956900149     -3.12771699162497
  F           4.89447666723427      2.61739060425736     -0.87161378088561
  F           5.52441955382092      0.79617033665266     -1.83796109076571
  F           5.06075039096472      2.53534164646220     -3.00730983967554
