18
Coordinates from ORCA-job NEB_product E -37.766001958080
  C           3.17577127222108      1.02311642055729      1.29192442272001
  C           1.71486522484983      1.03645326264433      0.99568283614690
  I           4.13161258102512     -0.45733440669255      0.04863482147204
  H           3.63623513108687      1.98077629032334      1.04245547542098
  C           0.97510848855278      2.32231462370281      1.44683662956255
  C           3.45263587406584      0.74254255040289      2.80448355501802
  C           2.83961648865235     -0.56430795900418      3.22300470404509
  C           1.73807103519841     -0.66786844188166      3.94038881618237
  O           1.09904223302066      0.14805699087688      0.48123383807901
  O           4.81892339958186      0.81289887520592      3.06454620445881
  H           3.00764596974523      1.56870500555469      3.37156985233915
  H           3.37373983260820     -1.44649789978994      2.89258966906692
  H           1.19606910901490      0.19729010743684      4.28437077614682
  H           1.33324794033028     -1.62752133571538      4.21058605531693
  F           0.69599041012404      2.24955992894744      2.76927571833965
  F           1.74144005293221      3.42093191032946      1.27495980395236
  H           0.03078637216737      2.45370451384763      0.89880030191002
  H           5.25619858482299      0.02307956325419      2.71435651982237
