21
Coordinates from ORCA-job NEB E -50.888872118050
  C           0.55986008848406      0.40146886101216      0.54175309401962
  C           2.08521870407930      0.34067694464845      0.25014215084764
  C           0.00978475840939      1.79225056544440      0.92912273684763
  H           0.46122085124352     -0.20293140096432      1.45948587612815
  C           2.79397651048824      1.59232749940638      0.07199274401829
  C          -0.09025737556031     -0.36805856276136     -0.53296444454336
  C          -1.77205949174395     -1.71052912742983      0.14983634954560
  C          -1.32688493824450     -2.59698164221789      0.99424163330716
  O           2.66167959091617     -0.70919207441405      0.22998750454947
  C          -0.29278934516281     -0.11381928990675     -1.88857614135741
  H          -1.18847172965893     -0.74111345603744     -0.06476688197456
  H          -2.69130422074369     -1.68704221317178     -0.40712607989554
  H          -1.93836684418582     -3.44879180120475      1.24999803712674
  H          -0.36006395221955     -2.54860647960377      1.46768269318712
  Br         -1.88764663978124      1.58287625990569      1.41306030824710
  Br          0.96044668165466      2.39401156894214      2.56497866672175
  Br          0.15353261244150      3.18738573953345     -0.41104797169220
  N           3.46715691137921      2.51149712089654     -0.03210376102373
  Br         -0.80411150851106     -1.68699323166741     -2.91885510285789
  Br         -2.06418949185041      1.30072149190979     -2.38477836884884
  Br          1.26326882856623      0.71084322768036     -2.68206304235276
