21
Coordinates from ORCA-job NEB_reactant E -51.037212544190
  C           0.99432882640172     -0.46810704946784     -1.11495797775774
  C           2.06454026141308     -1.28351097610280     -1.06345597152902
  C           1.04908610456826      0.99736120173786     -0.93404167527709
  H           0.01477991381566     -0.86913600368896     -1.32002597933011
  C           3.37582710871125     -0.77734539952074     -0.79867584235843
  C          -0.70532324803411     -2.44765458644464     -3.42428788847710
  C           0.51515261231234     -2.81798419091754     -3.07078052569722
  C           0.89239228777101     -3.25999703159919     -1.68875971557812
  O           2.07597582292100     -2.61703761798893     -1.25082619472924
  C          -1.09876371795001     -1.92267161581298     -4.75172864862155
  H          -1.52495519634970     -2.46612052843176     -2.71467092228083
  H           1.33931419837715     -2.79608209408287     -3.77178904716220
  H           1.15943900375564     -4.32169634046775     -1.70152900360063
  H           0.07411211540266     -3.10872560694196     -0.97419644632310
  Br         -0.75126564366719      1.74178443600965     -1.02373941263945
  Br          1.81789850788728      1.53044205899579      0.80598509703945
  Br          2.12072506806373      1.86357955996017     -2.36006703492943
  N           4.43104404401466     -0.38213184820624     -0.60485253018978
  Br         -2.78000070103196     -2.75269081089667     -5.33743035249126
  Br         -1.40631403895583      0.03382545651731     -4.54502111247909
  Br          0.22240667057335     -2.17610101264988     -6.15194881558806
