15
Coordinates from ORCA-job NEB E -30.624261728800
  C           0.11441611301750     -1.31515721030729      0.57467574019913
  C          -1.22300357858967     -1.01030090051940      0.34194224208564
  F           0.61735819988730     -1.05373113630997      1.79652368527254
  H           0.54942985342660     -2.22405655633832      0.16861541944007
  Br         -1.87767408227668     -1.84903120427299     -1.32503735478581
  C           0.97415272937784      0.20355640763492     -0.46254016561908
  C           0.31590753157396      1.27188764099359      0.15280846862783
  C          -1.06166613011213      1.44498554414268     -0.03440863953836
  O          -1.78862412413691      0.03782461372831      0.71137203500812
  O           2.29678662167307      0.04985090634097     -0.22056008277432
  H           0.62329402538858     -0.13287887634773     -1.43769677871909
  H           0.79926830581687      1.70461550072066      1.01565248721659
  H          -1.47125723449739      1.27688120186827     -1.02455235233865
  H          -1.55425342113288      2.22881266873005      0.52097541655704
  H           2.68586519058394     -0.63325860006375     -0.77777012063166
