26
Coordinates from ORCA-job NEB E -47.749460591840
  C           0.06316563001391     -0.96182211487253      0.55004795094494
  C          -1.33410434004266     -1.00231444263720      0.47349173129852
  C           0.75661500604267     -1.09670131617591      1.87277587672897
  H           0.58662712514553     -1.53986937590614     -0.20480894921520
  C          -1.95093994338597     -1.48699003398391     -0.82499174541022
  C           0.33504169313878      0.99920973321565     -0.07340423710972
  C          -0.93790198066581      1.56227363192995     -0.08068611405769
  C          -1.75983543858237      1.45426316785452      1.05130063288844
  O          -2.08600404847678     -0.25836279239687      1.19339667067398
  C           1.07358306036936      0.94165745395490     -1.38835749540686
  H           0.94792985654817      1.17277886454864      0.80071465077551
  H          -1.42548897802928      1.67580404601957     -1.04291848166225
  H          -2.77356717093437      1.82426803035584      0.98718588243272
  H          -1.30450365706090      1.58971824058796      2.02211581649366
  Cl          0.06743518824049     -0.17693230633048      3.21142463772801
  Cl          0.65713112983464     -2.84462927324295      2.33232550153773
  Cl          2.49226090400219     -0.70585759326617      1.78610034708080
  F          -1.12837100337170     -2.32818667947161     -1.52143632805138
  H          -2.15685944959645     -0.62012817300400     -1.47103716331376
  H          -2.88542108604388     -2.01942377083613     -0.62442504755314
  C           2.52020743206201      0.47614887225205     -1.30047196918046
  H           1.06054899871552      1.95349555493292     -1.80553704786232
  H           0.52588127408360      0.30400574119445     -2.08637925454057
  H           3.07430279101077      1.07615946013941     -0.58339585453649
  H           2.99751955706969      0.57673557307308     -2.27238917168415
  H           2.58474744991284     -0.56530049793502     -1.00064083899908
