26
Coordinates from ORCA-job NEB_reactant E -47.789528676230
  C           1.89777544436062      0.28457290467523     -0.75253309661442
  C           1.03269925133375      1.02242794103300     -1.45960839310012
  C           2.75731750842972      0.64819120520664      0.39557018680124
  H           1.96137488979205     -0.75867360550057     -1.02462370601023
  C           0.17054130769878      0.34993118074228     -2.50868512272561
  C           3.84135203201158      3.74034102133528     -2.48982967051158
  C           2.56771986057780      3.38665007482525     -2.50436552065026
  C           1.68302652689120      3.35132091351253     -1.29425045684367
  O           0.69444388122111      2.32540201041392     -1.39856737165714
  C           4.72716169099236      3.77448968567813     -3.69167982867434
  H           4.31433419665024      4.01661178974858     -1.55700990268263
  H           2.07979551724183      3.11392103243859     -3.43119674666427
  H           1.08138860036713      4.26532481028734     -1.23691961416665
  H           2.27436773369022      3.26767630223768     -0.38087327913135
  Cl          1.92433160240572      1.69544388037420      1.57750795086733
  Cl          3.24110168432763     -0.83265541667003      1.26250261575049
  Cl          4.27599981275032      1.46344605673081     -0.11588424441883
  F           0.21760033264073     -1.01169684611244     -2.44683804072021
  H           0.50377091046955      0.63978763197342     -3.51254395419249
  H          -0.87150683135210      0.65632551425963     -2.36784826790736
  C           5.90000067677033      2.80830026132675     -3.52329251815175
  H           5.11693979878343      4.78797480080433     -3.82044629734203
  H           4.15679115778202      3.51273700815340     -4.58456705443983
  H           6.48455379897131      3.06883315645995     -2.64413114386287
  H           6.54962714465298      2.84349767911601     -4.39433169050541
  H           5.53549147053970      1.79101900695010     -3.40165483244603
