26
Coordinates from ORCA-job NEB_product E -47.796990259440
  C           2.76278155133372      1.34749117466400     -1.44930051929692
  C           1.45515703582308      1.05597794876871     -2.19865164930392
  C           2.57717578011125      1.02443285196792      0.03168587536504
  H           3.54009519777332      0.66579321489964     -1.80763791924801
  C           1.59460634873483     -0.07694103582659     -3.20243095202166
  C           3.25463649774450      2.79607838972519     -1.70314921395621
  C           2.30258429709545      3.84801799305519     -1.21372696809396
  C           2.65587157713550      4.81633992452846     -0.38974558866126
  O           0.43398938076870      1.65000200385467     -2.01838229598920
  C           3.51291850113336      3.01923281884484     -3.20495496134494
  H           4.20616672903841      2.91126952865631     -1.17380705493244
  H           1.30099581147554      3.80152702586857     -1.61538010077395
  H           1.96345838401237      5.58060025341150     -0.08291886319143
  H           3.65115933792689      4.88120522110452      0.01994163875560
  Cl          1.27569471349178      1.92780029365433      0.80843187792919
  Cl          2.20109681297838     -0.72334082628575      0.18605083464944
  Cl          4.08776064482384      1.31574161708733      0.92670393524399
  F           0.43163822312696     -0.28506357876310     -3.88143169817723
  H           1.84564816087229     -1.00670452464409     -2.67753973066442
  H           2.36876751063399      0.15594763348372     -3.94293139516888
  C           4.71822186505062      2.25357706703894     -3.73868506033321
  H           3.69260197520703      4.08679680983091     -3.34748060171064
  H           2.61688745011149      2.76365539004982     -3.77398698010240
  H           5.60783240113647      2.50261127638328     -3.16489200521318
  H           4.89692139464832      2.52336979082854     -4.77657613446274
  H           4.57473241781191      1.17648173781313     -3.69280446929665
