17
Coordinates from ORCA-job NEB_product E -37.047286601290
  C           1.99772086926462     -0.84414017971613      0.81523376776069
  C           1.99867760769461      0.28254407512759      1.81599361236493
  C           0.65549053293105     -1.02814228995687      0.29880985992507
  H           2.66672644621760     -0.57983025517043     -0.01620202956843
  N           2.97011481138703      1.43873413308439      1.42289288769576
  C           2.46176798973455     -2.15389790306950      1.48148599330393
  C           1.51022531953477     -2.67142010955480      2.49699197826716
  C           1.08174547559725     -3.92150233419643      2.50417585691173
  O           1.38588274318737      0.41253718382766      2.81640595932995
  I           4.41577037538704     -1.75417817724429      2.41917926830876
  H           2.66130335483132     -2.90217693316732      0.71311640916077
  H           1.18456561070860     -1.96607920580618      3.24895718386080
  H           0.38787740320547     -4.27117400148880      3.24735762205820
  H           1.40213018639331     -4.64061225568101      1.76778797736427
  N          -0.40061476905820     -1.19329730846949     -0.09907595706901
  O           3.06299973716824      2.31285389791230      2.23356542017607
  O           3.51591630581538      1.35438166356931      0.35052419014936
