24
Coordinates from ORCA-job NEB E -45.440376417510
  C          -0.36904634564498     -0.97098318683431      0.82838165476620
  C          -1.66156081784708     -1.27817935240803      0.33926295540710
  C          -0.28050813505988      0.06129457195278      1.92904280962633
  H           0.25059271905202     -1.82600637225520      1.09296828195918
  C          -1.91278558790595     -2.59231039228142     -0.11593361985426
  C           0.43504632521872     -0.21289828161741     -0.71566117629675
  C          -0.48939951749905      0.78681245592681     -1.04550217591686
  C          -1.85282847320877      0.39945626471052     -1.33673680707893
  O          -2.42604577225236     -0.28256557191609     -0.08626605794578
  C           1.89145010426052      0.12245096242864     -0.44701835442998
  H           0.35595999522379     -1.13049867565723     -1.29673389939290
  H          -0.31799593095454      1.80090631484466     -0.72382434672003
  H          -1.95579194907420     -0.35734957761626     -2.11729979764837
  H          -2.53334304511320      1.22953836932885     -1.50099694948959
  F           0.97710437386585      0.21566274971128      2.37589840507886
  F          -0.73127859864288      1.27939280259906      1.63144332988234
  F          -0.98991822460662     -0.35400108777140      2.99497988705591
  N          -2.14196966456793     -3.66700738414495     -0.45239142895123
  C           2.19191356875204      1.58675243081812     -0.14904054536125
  H           2.44661943014586     -0.16768197431967     -1.34382445422389
  H           2.26954321232132     -0.49807207933454      0.36709582966129
  H           1.95548749686614      2.21116540867227     -1.00718734564726
  H           3.25134203188406      1.69538444603227      0.06822322346669
  H           1.63741280478712      1.94873715913126      0.71112058205318
