24
Coordinates from ORCA-job NEB_product E -45.468142279100
  C           2.76091429478773      0.43070777644751     -1.13394422437899
  C           1.75908031039986     -0.69820008831346     -1.32819872797779
  C           2.15550161245332      1.50574677525189     -0.23394366810079
  H           3.63223133855151      0.04270160562768     -0.59405792392599
  C           2.42790911953964     -1.89266633299070     -1.82930723981739
  C           3.20125524118341      0.90270858029768     -2.55952953970293
  C           2.68278436615807      2.26899899567142     -2.90524273186191
  C           1.78928406041682      2.48436609929003     -3.85198875233715
  O           0.57663937749639     -0.63573476644852     -1.14710372275706
  C           4.72878266309663      0.80803092798280     -2.72730255168324
  H           2.76372980315416      0.19980607673720     -3.28186198605946
  H           3.09423967929604      3.09494127755216     -2.34489621248868
  H           1.35591579940522      1.67953051444085     -4.42348483866844
  H           1.44910436996226      3.47617333093014     -4.09172216486553
  F           3.02857969193393      2.49153685025793      0.02889917135362
  F           1.05590893009317      2.08163590820517     -0.71270569562866
  F           1.83505973185305      0.97792098080589      0.95978948553333
  N           2.97109496292795     -2.82181639508378     -2.21633191204219
  C           5.53875922767581      1.71987364384716     -1.81386068656658
  H           4.95532069056636      1.05552734875092     -3.76629399927579
  H           5.02847660100823     -0.23092239091894     -2.56578058597005
  H           5.33037076660157      2.76580604593082     -2.01826969616230
  H           6.59885663260970      1.54832685219958     -1.98279993370809
  H           5.33280072882918      1.53140038352858     -0.76326186290795
