24
Coordinates from ORCA-job NEB_reactant E -45.468821498000
  C           1.33558716486145      0.06293640295002     -0.05362082727709
  C           1.49821046509592     -0.61698850511313     -1.20865335857975
  C           1.28002579575242      1.52723238359065      0.21256590876253
  H           1.19007957891031     -0.52124294279861      0.84232699346535
  C           1.44721771715156     -2.04667337607769     -1.05810844547725
  C           4.20206694265053      1.65172252284299     -3.84878857236759
  C           3.44999461810640      1.31336716871686     -2.81481830355000
  C           1.98004833516954      1.03827971607872     -2.92282714136390
  O           1.67256568707171     -0.28589170017546     -2.48099743939780
  C           5.66461477310477      1.96009114587289     -3.82053338715521
  H           3.74606758442890      1.74077832378058     -4.82785365711470
  H           3.86845107440533      1.21204533388782     -1.82560576426032
  H           1.66467761805205      1.04743992119984     -3.96926072937817
  H           1.39433455493971      1.78298559087630     -2.37928834908822
  F           2.40757577537628      2.19903368646913     -0.09822186238169
  F           0.28525125243996      2.16328749143249     -0.44522196351394
  F           1.06429288310689      1.75502580320299      1.51401892187580
  N           1.40698213873551     -3.18107719833065     -0.92531257469636
  C           6.32420046892693      1.84392350008244     -2.45323679970768
  H           5.80100837144518      2.97553666110413     -4.20596785446319
  H           6.16399977215692      1.28836625216500     -4.52608005967749
  H           5.85953171610921      2.52398716205836     -1.74371404421776
  H           7.37911836699656      2.09638856047480     -2.52909009141040
  H           6.24339734500596      0.82894609570952     -2.07181059902515
