17
Coordinates from ORCA-job NEB E -29.811725858600
  C          -0.83476380307604     -0.66946123903419     -0.17656194471072
  C          -0.13078867303231     -1.30584689703579      0.82990726522399
  Br         -0.05704411452744     -1.51232545361605     -2.35709025668132
  H          -1.82340450882611     -1.04226854328057     -0.39150436731843
  O          -0.67974760021976     -2.33753939416129      1.48068176106624
  C          -0.62415263358615      0.86295956873854     -0.27013374728693
  C           0.86113005456514      0.97368277155027     -0.25172729959008
  C           1.54456787815063      0.39207114412226      0.90100007890365
  O           1.06826315784999     -0.95477840084196      1.26280529576364
  N          -1.33012649798138      1.37625517531174     -1.40992599402347
  H          -1.08039079953610      1.31194360033017      0.62563398113867
  H           1.37395177200562      0.98324862675942     -1.19998774493339
  H           1.37096964894880      0.97504268153232      1.81394430715852
  H           2.61741971868297      0.27478857552583      0.74560326085839
  H          -0.04463385777547     -2.70331725956886      2.11359220443004
  H          -0.95611160310849      0.98981991085429     -2.26963227487261
  H          -1.27513813853389      2.38572513281388     -1.44660452512618
