17
Coordinates from ORCA-job NEB_product E -29.884386989120
  C           1.96093784713833      1.57848390681713     -1.13772017909208
  C           0.73204538316540      1.16276730826632     -1.96893021764696
  Br          1.63735876119967      1.08321277862686      0.71291672101462
  H           2.81810033224628      0.98100608653018     -1.46790884465279
  O           0.71012223156756      1.66794015673560     -3.19266176599650
  C           2.29527802935162      3.07670919365775     -1.24526965248549
  C           3.39827761541964      3.45491488485346     -0.29510366843577
  C           3.29911024926542      4.41088993258936      0.60818214907466
  O          -0.10734203313370      0.42661043233230     -1.54548839917236
  N           2.65373594933292      3.34759749199747     -2.64694461686357
  H           1.39432767412117      3.65697757966494     -1.01353750627467
  H           4.31652679365887      2.89354280753507     -0.41517794138977
  H           2.38861093520899      4.97066342315765      0.74438925482602
  H           4.11748860047572      4.66110053394038      1.25992239079103
  H           1.42899862798384      2.34916943390011     -3.31260865021562
  H           3.58766887011490      2.99745968966314     -2.84302021470856
  H           2.65395413288336      4.34515435973228     -2.82683885877218
