23
Coordinates from ORCA-job NEB_reactant E -59.552466530090
  C           2.19166862331243     -0.41016385082776      0.43675193965191
  C           1.37913723978455     -1.32482176869592      0.97603686769356
  C           2.68480624999255     -0.35985948859314     -0.97657213564724
  H           2.53191879062954      0.40392968188261      1.05412532871392
  C           0.94929154071771     -1.17670153208273      2.42953211061569
  C           3.93102142664830     -3.76529507140802      0.73175098440260
  C           2.62348150674390     -3.96641134189991      0.76643293197715
  C           1.68029957774950     -3.37789001945378     -0.23707148576291
  O           0.83932452646463     -2.42639895580511      0.42572376497933
  C           4.90332662886538     -4.20099939272878      1.75629161268250
  H           4.39076327876382     -3.21833346305094     -0.08266090561772
  H           2.15126329396741     -4.49968978699735      1.58046003290663
  H           0.97935775708148     -4.13259135216350     -0.60104945572052
  H           2.21358575596430     -2.94785956440137     -1.08496064080898
  F           3.78703207666383     -1.14633460451853     -1.15963895043435
  F           1.76960519201474     -0.80576900519951     -1.86823397843298
  H           2.96695271015115      0.66195498627441     -1.26899417922910
  Cl          2.17641134729880     -2.02252392648498      3.42114414228402
  Cl          0.86149931383594      0.50389774277705      2.96573800125706
  Cl         -0.62467463565458     -1.93949662264783      2.69675627958168
  Br          6.33119941829529     -5.26087924179881      0.91734289694310
  Br          5.72625539428193     -2.58694552803176      2.54097768756883
  Br          4.15557298642740     -5.24561789414432      3.20581715039583
