20
Coordinates from ORCA-job NEB E -41.244277408600
  C           0.36019298614022      0.53787825136190      0.81186449373248
  C          -0.88124706324299     -0.07120158963516      0.57278874232962
  C           0.47661063117677      2.02388264781217      0.57891551500677
  H           0.88107248173785      0.20277437728666      1.70289752399721
  C          -1.25686587348829     -1.29543465836155      1.39943670581800
  C           1.43393134312080     -0.18190302527284     -0.68917885554876
  C           0.56452486713549     -0.86871683583403     -1.53895087975415
  C          -0.59259957315046     -0.17934136170532     -1.95508876121702
  O          -1.49657534631506      0.09340191092704     -0.53854998756124
  Cl          2.73407432612657     -1.07356087075076      0.04254324614518
  H           1.76606213756629      0.80134657778599     -0.99606975928484
  H           0.51313675017556     -1.94573209212232     -1.45756944279398
  H          -1.31324879677718     -0.72567397414552     -2.54838061589534
  H          -0.47251388566872      0.85210429436734     -2.26612948199027
  H          -0.03787565889600      2.32388161202475     -0.32954295162669
  H           1.51502632671595      2.34198829042825      0.54107796736923
  H           0.00276577692712      2.53182340166147      1.41878915127661
  Cl         -0.03919386450980     -2.59868119280682      1.23388700602958
  Cl         -1.33098023907733     -0.83993310111913      3.11631614822413
  Cl         -2.82629732569678     -1.92890266190214      0.90094423574348
