20
Coordinates from ORCA-job NEB_reactant E -41.281528362820
  C           1.87677153915382     -0.13160754972856     -0.02054475831930
  C           1.49936727833682     -1.25258421718553     -0.63238208680219
  C           1.89319083810650      1.21291434926532     -0.65784621506088
  H           2.18238080791584     -0.18187358829673      1.01367735550090
  C           1.49541408190471     -2.57327168126039      0.11160639479937
  C           3.90352657190544     -3.01845200051169     -2.75521949263014
  C           2.65623634768390     -2.72739747520718     -3.08474904645776
  C           2.08127532040402     -1.35101518838159     -2.93370516155925
  O           1.06459353628212     -1.29346035100424     -1.92914130421259
  Cl          4.56264301083419     -4.59396817632073     -2.89809168923698
  H           4.60588052525826     -2.28745487470248     -2.38216533858714
  H           1.98116395452986     -3.49030675944975     -3.44137121744053
  H           1.56468934658494     -1.05903376004132     -3.85195219787776
  H           2.87407414720574     -0.62857295658100     -2.70892709183292
  H           1.42393850664672      1.18662894812811     -1.63710529662277
  H           2.91868068790557      1.56908858590796     -0.75591063708088
  H           1.35993924127923      1.92051934231843     -0.02563916251731
  Cl          3.18106297639309     -3.10886632648347      0.40779200391262
  Cl          0.70667919607359     -2.40457034167823      1.69771978686698
  Cl          0.65759208559560     -3.83441597878692     -0.79064484484148
