20
Coordinates from ORCA-job NEB E -39.084793714760
  C           0.20697198401138     -0.28906835374127     -1.19124835538639
  C          -1.15065525458221     -0.29121463990118     -0.79625350347932
  I           0.87589363277873     -2.11590114334181     -2.13220135604740
  H           0.49561646277758      0.52929062760761     -1.84157161416554
  C          -2.02491766027937      0.90488977401295     -1.01694854177203
  C           1.17099698409978     -0.20617996416280      0.40372549369563
  C           0.29360401596156     -0.52043788165296      1.47180557450332
  C          -0.57076878497978     -1.63906478375046      1.18726168702547
  O          -1.55231200000054     -1.14021305174755      0.10409466713907
  C           1.88464882333454      1.11526389237504      0.47587283990447
  H           1.89532298468652     -0.99072035389380      0.18628771066371
  H          -0.17149626174294      0.30677582559348      1.99844470376653
  H          -1.24913093750364     -1.92600207625658      1.98435008414888
  H          -0.06615496997261     -2.51027414445388      0.76861997425931
  H          -2.12084133126506      1.47536118046205     -0.09149965981185
  H          -3.02303063374073      0.56956420128907     -1.29359501855134
  H          -1.63087689497702      1.54752357565651     -1.79744982550987
  Br          2.99900227881794      1.17551683145233      2.09697161143727
  Br          3.07822295721603      1.37587804602697     -1.05415575304054
  Br          0.65990460535984      2.62901243842629      0.53748928122062
