20
Coordinates from ORCA-job NEB_reactant E -39.128992706740
  C           0.36782179450438      0.54789938839270      0.48352728335564
  C           1.60871901031528      0.65327008137994      0.94622518720205
  I          -0.99788146393869     -0.78435717520788      1.35651861379775
  H          -0.00283753760144      1.10114163388454     -0.35637900196293
  C           2.60361100188005      1.59610341220928      0.34108712577923
  C           4.08246099394605      2.15855934559126      3.74913326230945
  C           3.04825906506342      1.36810431235255      3.50835835334319
  C           3.13988803385043      0.10185759960158      2.71126523704597
  O           1.96842250961144     -0.16134500552972      1.98257021811901
  C           4.05811783595184      3.42061461613952      4.51833464971654
  H           5.06630116885039      1.91819725679765      3.36228578875797
  H           2.05734743635010      1.59268028445889      3.88114210719530
  H           3.21728014504791     -0.74440318345423      3.40489731218557
  H           4.03012060669465      0.10374829370582      2.06969725180418
  H           3.48270234876826      1.05263596982114     -0.00488123805411
  H           2.92388081121728      2.34521049868179      1.06477057172802
  H           2.15604092212101      2.10509250032006     -0.50658586164609
  Br          5.39330157948777      3.34106585367823      5.97069060484805
  Br          4.57495556296498      4.90460867808398      3.30685209837541
  Br          2.34108817491488      3.86991563909290      5.30359043609979
