20
Coordinates from ORCA-job NEB_product E -39.140968901710
  C           2.79051307608938      1.40994458254103      1.45641118760949
  C           1.39414855242732      2.01214872976555      1.58667829132828
  I           2.41951248882532     -0.54586730107693      0.58336351790974
  H           3.37188027924527      1.94091432095979      0.69994174070244
  C           1.02356567615839      2.90572971283995      0.43842973508331
  C           3.61168161113788      1.25422899969481      2.74361163066589
  C           2.82042743171684      0.68165054548303      3.88787311035417
  C           2.94087856620159     -0.57294963440075      4.27873767819960
  O           0.65904261156446      1.74894920845615      2.49885492394269
  C           4.24315717819236      2.58134718141015      3.15325569179929
  H           4.44976663844268      0.57577804604802      2.52610247194842
  H           2.12205962219393      1.35027607802247      4.36991715665653
  H           2.35206044974086     -0.96291870086784      5.08939588290111
  H           3.62144491959038     -1.26190003286167      3.80426041889512
  H           1.65414618168779      3.79381807121988      0.44684613897726
  H          -0.01678215470699      3.20591297461355      0.52722645408063
  H           1.17840660685856      2.38845038471572     -0.50695755584582
  Br          5.26202705401277      2.33542061962504      4.80647445031929
  Br          5.50380570845785      3.21570838208683      1.78502792745935
  Br          2.93865750216335      4.00065783172521      3.44964914701322
