18
Coordinates from ORCA-job NEB E -38.330970083000
  C           0.59766011071992      1.84336936028615     -0.36460799011681
  C          -0.24805505457971      1.19583935306417      0.43701335926098
  Br          2.25714091597599      1.42895534554311     -1.28586611585870
  H           0.63455484195849      2.91617734953417     -0.37097676968767
  C          -0.67315753764321      2.01880546690377      1.59640189605573
  C           0.62648080297817     -1.97176602834451     -1.41389170018346
  C          -0.13123947836269     -2.14338130693858     -0.32741532957708
  C          -1.00470084292712     -1.27591034793900      0.55582418103743
  O          -1.06688685055776      0.11306510507162     -0.01058054731268
  C           1.54343871665388     -1.88975753174024     -2.44880608393771
  H           1.07303543661336     -0.83993265270923     -1.08173753325490
  H          -0.63890736279693     -3.11190923621936     -0.38447961655431
  H          -0.87213304709182     -1.18813357261604      1.63088810297754
  H          -1.98902151265117     -1.71538470000398      0.40867747252153
  F          -1.32386440407829      1.10954942413786      2.42919508651392
  F           0.25291323171413      2.51438811021629      2.42727735261784
  H          -1.49882425080274      2.66509985976698      1.31633250901513
  N           2.46156628487747     -1.66907399801318     -3.11324827351678
