18
Coordinates from ORCA-job NEB_product E -38.483304087420
  C           2.66754434311098     -2.29333411687095      0.35766092855928
  C           1.36903380133494     -1.94001695542384      1.04656471843773
  Br          3.37043101827606     -0.58203013014412     -0.32131937900829
  H           3.41143502890238     -2.63264974187824      1.08462113827461
  C           1.52780592798197     -1.02443293549047      2.28161772657046
  C           2.47571530125179     -3.32438886186950     -0.76095530143231
  C           1.63269452143129     -2.82747272296026     -1.90955919453958
  C           0.55831167731281     -3.45434342055547     -2.34502962273132
  O           0.28945542706250     -2.29772555140923      0.67981898440448
  C           3.77310680807789     -3.72011945286052     -1.27400540084674
  H           1.99842389923497     -4.20747453101350     -0.31468248684477
  H           1.98600464114627     -1.92200684182465     -2.38338127903558
  H           0.19617621234156     -4.36061841970228     -1.88854585974316
  H          -0.01140536993644     -3.07495773418136     -3.17466931825092
  F           0.61475269285514     -1.35497675220541      3.21244996062740
  F           2.74453388883647     -1.16558081241674      2.85269044642960
  H           1.38653751065587      0.03673328429096      2.01604632883103
  N           4.79734267012356     -4.01130430348442     -1.68522238970192
