18
Coordinates from ORCA-job NEB_reactant E -38.485713926810
  C           2.16845626123737     -0.62484951585167     -0.16585487928153
  C           1.41587236161902     -1.33596321696383      0.67209352568418
  Br          2.41144156681139     -0.82298161872835     -2.02463525782027
  H           2.72034714574016      0.21557142312958      0.22308463738402
  C           1.40378850064738     -0.88680126216381      2.12548806947815
  C           2.46521334997304     -4.30125395158262     -1.95898518084202
  C           1.93989419331318     -3.95520184136200     -0.78609160926114
  C           0.64619835430498     -3.21855628060487     -0.63465131195162
  O           0.61574263937111     -2.41602606804981      0.53806650319744
  C           3.66740780159645     -5.02961533773393     -2.05488212577074
  H           1.99765922665235     -4.03978122219236     -2.89915775241635
  H           2.43379376453992     -4.21841083726040      0.14044109646526
  H          -0.16146885439106     -3.94115193257120     -0.46408368597752
  H           0.40142096431283     -2.63636810084154     -1.52821349983327
  F           2.60985971206911     -1.10221419286586      2.70335935506054
  F           1.17161493001755      0.43980940612212      2.23134941863262
  H           0.64013549472079     -1.42754816563224      2.70195805396052
  N           4.64122258746442     -5.62795728484721     -2.13908535670827
