14
Coordinates from ORCA-job NEB_reactant E -26.583567802280
  C           2.11469855916349     -0.00001092258784      0.47105061505342
  C           1.38103366516418     -1.03416949537382      0.86159524205844
  Br          3.07301701888838     -0.05346032245823     -1.14867688297209
  H           2.20498885375594      0.91717567668923      1.02569642408079
  H           1.31868286368482     -1.94077814684381      0.26928985576753
  C           2.24526884265668     -3.05084065149828      3.14545781225615
  C           0.96037679176555     -3.24574448742424      2.92115453154598
  C           0.02972779761988     -2.20062432393640      2.38176057409597
  O           0.66265437463965     -0.99636277703764      2.00930413123310
  F           3.02569534561179     -4.02564917831375      3.63082077837661
  H           2.79422596175947     -2.13586652131770      2.97763477790394
  H           0.51120979213307     -4.20428723722417      3.13380980075638
  H          -0.69168073563200     -1.91860382653888      3.15631419713531
  H          -0.52959913121093     -2.61957778613448      1.53178814270846
