14
Coordinates from ORCA-job NEB_product E -26.582695569600
  C           2.23781619040341     -1.41550700551487      1.18463738716414
  C           1.11163364844943     -0.50184379150991      0.76803633312082
  Br          2.35012417469547     -2.81153540483602     -0.19098932514285
  H           3.18864058666470     -0.87574237793963      1.11818079053202
  H           1.15894606293990     -0.21783043879368     -0.29840560870368
  C           2.06573476656290     -1.97833749259342      2.59914473549504
  C           1.16662544038740     -3.17759190663659      2.65138349443580
  C          -0.13766990525340     -3.09711519864323      2.82885054255842
  O           0.24296666216641     -0.11944440969007      1.49356796821767
  F           3.31200233427503     -2.30208582153133      3.09293966869242
  H           1.68222959141757     -1.16634852345772      3.23339373961794
  H           1.67267354966386     -4.12230110108000      2.51103244724146
  H          -0.63530040663477     -2.15115207616315      2.96620762204502
  H          -0.75732269573791     -3.97636445161037      2.82982020472578
