17
Coordinates from ORCA-job NEB_product E -38.704888961780
  C           2.94711097689513     -2.30498273307105     -0.46987884669480
  C           1.71989647230630     -1.47466343876717     -0.23993467432738
  H           3.81990689173548     -1.67686968594074     -0.27406447383927
  H           2.94092817982865     -3.14156529568143      0.23369080766356
  Cl          0.23346227614555     -2.37794803666289     -0.54136135183651
  C           2.99595728704983     -2.84547925363835     -1.90951929576752
  C           3.00006029811142     -1.72404878226506     -2.91318955509475
  C           2.09504322539439     -1.59441234602081     -3.86293463209457
  O           1.66483132420757     -0.34738413167744      0.11269438369256
  C           4.26096237551233     -3.68458034621679     -2.07948668971040
  H           2.14766835581011     -3.51295818102848     -2.09007380801354
  H           3.80824791719622     -1.01421319705426     -2.80510595264819
  H           1.28643188372015     -2.29663498145595     -3.98028219339522
  H           2.12570928797124     -0.77702853741045     -4.56116539519461
  F           5.38112048719155     -2.97588556831837     -1.88429984909846
  F           4.30519081979243     -4.70908207559669     -1.21210893641576
  F           4.34677194113165     -4.21686340919405     -3.30377953722515
