17
Coordinates from ORCA-job NEB_reactant E -38.678186423630
  C           2.30002529782175     -1.21346612630675      0.02375024137483
  C           1.21744531748260     -1.61133156601010     -0.62394121415927
  H           3.20468042323566     -0.93750743501589     -0.48430860381510
  H           2.30515908203029     -1.17058765502460      1.09469864145547
  Cl         -0.21501227506113     -2.08863092108090      0.21230009406242
  C           3.24450503657558     -3.40877449679660     -2.42313908438677
  C           3.17632629968939     -2.20545779060759     -2.96811075264885
  C           2.00869844791234     -1.27814664254954     -2.83472126969429
  O           0.99930489761944     -1.71808261029837     -1.95584780153549
  C           4.42734165350983     -4.30779068046226     -2.58656769038754
  H           2.45505747302852     -3.82875984197243     -1.81896406250179
  H           3.98677991660032     -1.82543910442059     -3.57522788002039
  H           1.51569579111006     -1.19351230790344     -3.80994389882070
  H           2.36381615068078     -0.27951570666401     -2.54497683823310
  F           5.39642181457662     -3.78030451384899     -3.34868921107915
  F           4.99408462418375     -4.60689725203422     -1.40403470924470
  F           4.09357004900420     -5.48099534900373     -3.14977596036559
