20
Coordinates from ORCA-job NEB_product E -50.476355739350
  C           1.46740571047747      1.76839738239346      1.82118175082908
  C           1.77644350980936      1.86658431535404      0.32524834936454
  C           0.98030783496654      0.34831263934188      2.11294846759072
  H           2.43055618884066      1.86964160097008      2.34147972299743
  H           2.30616888649562      0.98313445264561     -0.06671278954624
  C           0.50354038605676      2.89307753325118      2.25969090105826
  C          -0.94063961778151      2.46919226965163      2.34593376964688
  C          -1.82962908454354      2.77569914234569      1.42156255509464
  O           1.49609929647016      2.80349437048735     -0.35413605063687
  C           0.94304115696405      3.49700408028403      3.59135210635181
  H           0.59954797029142      3.69361855504657      1.51268506587383
  H          -1.21108241088992      1.89535837300358      3.22112989271844
  H          -1.56772206238788      3.34708128911112      0.54652662013204
  H          -2.85333216994651      2.45748396930893      1.50294751684893
  F           1.95385646064825     -0.53780184853291      1.84670542116231
  F           0.62881962676732      0.15660029917392      3.38302109882514
  F          -0.06561866952496     -0.00638342113041      1.35687765496957
  F           2.22111353829641      3.91642415681180      3.54793999514686
  F           0.86560154109036      2.64219309569227      4.61667727391961
  F           0.20122190789996      4.56088774479020      3.91264067765303
