21
Coordinates from ORCA-job P E -28.557284505860
  C          -1.55211108258297      0.52810754092664     -2.23118810993562
  C          -0.14294244822507     -1.56980939360486     -1.18356112287222
  C          -1.49772496575998     -1.83200983276855     -1.75207942344161
  C          -2.17555802801798     -0.82818485895867     -2.28787727565629
  C          -1.07032348131939      0.79681648133337     -0.80491914293277
  C          -0.13198109034725     -0.30844471923875     -0.27709218583564
  H          -1.88516935272686     -2.83827595082586     -1.73166785142743
  H          -3.15291167074535     -0.93678277115461     -2.72719624096137
  Cl         -2.71687198064725      1.79661540289284     -2.71607950231762
  H           0.22317484074380     -2.42781599870895     -0.61792730654744
  H          -0.72040923718748      0.60253124941604     -2.94037902118782
  H           0.54706260263749     -1.39701266842690     -2.01517336179531
  H          -1.95188379405781      0.85664398232258     -0.16578093922392
  H          -0.50098502167259     -0.61274277309750      0.70875296037193
  H          -0.55777304282792      1.75655214564049     -0.74840682508910
  N           1.19481022446668      0.23410360273631     -0.03152805515372
  C           1.96925139075702      0.66143784469463     -1.17909762656267
  H           1.73815215321840     -0.42776390573893      0.51254065584082
  H           1.38786772331092      1.36695459449457     -1.76944593400112
  H           2.29849110996202     -0.15454790914115     -1.83888168916080
  H           2.85677515102159      1.17526793720726     -0.81125200211027
