20
Coordinates from ORCA-job NEB E -46.200133248680
  C           0.46454036971581     -0.88441642493046     -0.06685035753087
  C          -0.87246353293056     -0.55044727560586     -0.33560628937633
  C           0.81356520957307     -1.46182381157076      1.28168396137179
  H           0.96280735908267     -1.46833083503299     -0.83687490931528
  C          -1.33238052127054     -0.66540280122571     -1.78531991853156
  C           1.34261970088750      0.86531274459305      0.04096942534112
  C           0.32737384316207      1.81424167642370     -0.02004950388410
  C          -0.75841235079215      1.64798372663036      0.89100571438774
  O          -1.51978923285803      0.30977499763789      0.38504146219884
  H           2.06179160157156      0.84710259671958     -0.76609975024678
  H           1.77832284818926      0.68347663060714      1.01342556996740
  H           0.10173158984128      2.26305861739546     -0.97898956599357
  H          -1.56687141766310      2.36805909310761      0.83670459771471
  H          -0.49456173848197      1.39463535668771      1.91378368096610
  F           2.13973471524606     -1.59836336881034      1.44359535675997
  F           0.37436460698724     -0.76923515204783      2.33736819884711
  F           0.29807172609354     -2.69667134346728      1.40354663166363
  F          -0.74068612391472      0.29827945884409     -2.54902382489644
  F          -0.95910740947145     -1.84490052001361     -2.32430135718841
  H          -2.42065124296753     -0.55233336594175     -1.88400912225508
