36
Coordinates from ORCA-job R E -40.265966437470
  C          -1.36741550732611     -0.35422973642377     -3.02102406204488
  C           0.44773514946973     -2.65314417804399     -2.27563529288788
  C          -0.88415114640342     -2.67423073578916     -2.33979039894513
  C          -1.77598138274818     -1.58238677789262     -2.64568225804281
  C          -0.97843842500763      1.38393896127129      0.23400175380073
  C          -0.17744524621532      0.34193530967485      0.12129345552008
  H          -1.38526731947104     -3.61300487439398     -2.13233125535440
  H          -2.82713645368324     -1.81108128001518     -2.55118282632641
  N          -2.11730816878802      0.75946454976692     -3.24840827979305
  H           1.00796991185826     -3.54167142432507     -2.03983676663182
  H          -0.30676228846142     -0.18023839350876     -3.13635982933228
  H           1.02778184636630     -1.76480133284076     -2.45705496021327
  H          -1.98075096953734      1.37165890829446     -0.15950498411817
  H          -0.51972348773168     -0.55632051389337     -0.37396070371919
  H          -0.66772804517426      2.29513495301408      0.72118448657082
  C           1.22489007994651      0.28293301541352      0.63666520385544
  C          -3.56534755853493      0.70903664831311     -3.16585133326844
  C          -4.16045734073724      2.05869468338696     -2.76702546293799
  C          -4.18645329722080      0.20735677784150     -4.47512845210214
  C          -1.51550508868012      1.89197900831146     -3.90519047209803
  H          -3.80195241495654     -0.00439826226058     -2.36926413457782
  H          -4.06962958591035      2.78584762095659     -3.56975377754893
  H          -3.66679035604613      2.44697636121062     -1.87942657768727
  H          -5.21661798515060      1.93202906499926     -2.54272014235806
  H          -4.01224512669579      0.91876161066218     -5.27934224006363
  H          -5.25902042217388      0.07779824873186     -4.35809461855396
  H          -3.74591155868010     -0.74655843176204     -4.75445776510323
  H          -0.44340987685410      1.73337679856954     -3.99637278815243
  H          -1.67423821118518      2.80527075033058     -3.32756841955529
  H          -1.92499343931892      2.03855891893852     -4.91017956180233
  C           1.44385459093030     -0.96350584614219      1.49167279573650
  H           1.44957003152507      1.18107069866559      1.21601937735016
  H           1.91249519052494      0.24988692215699     -0.21437814606139
  H           0.76559393893219     -0.96302085749962      2.34213903433028
  H           2.46548757622710     -0.99773581241974      1.86387630339337
  H           1.25903238691195     -1.86028135329904      0.90410309872284
