36
Coordinates from ORCA-job TS E -40.247230117530
  C          -0.01818682958826     -0.36096284172866     -0.88947474981936
  C           1.52553557063006     -2.18538265768411      0.71513962043696
  C           0.31071648087878     -2.51015150945505      0.18225026646835
  C          -0.45316711060413     -1.63164072015308     -0.59875354116918
  C           0.10180970020635      0.27632447708520      1.37306163955148
  C           1.01368422778340     -0.48924594764385      2.03722022424009
  H          -0.18318943716348     -3.40884061381122      0.52937430571914
  H          -1.46516490402853     -1.92787113771192     -0.83379246915252
  N          -0.72773113462693      0.60158638683157     -1.54984776775327
  H           2.00912820070241     -2.89973433361594      1.36175864677755
  H           1.04297269843141     -0.16877932394082     -0.87346297209679
  H           2.18778110163881     -1.50581702757970      0.21084186651741
  H          -0.95165900786909      0.08041721719241      1.45464871574333
  H           0.66094354619235     -1.22892406906269      2.74059222057229
  H           0.38768785408459      1.23188227167943      0.96862752605475
  C           2.39011554982913      0.07050537182714      2.31544319098238
  C          -2.17813704260145      0.64792231151862     -1.50302508701278
  C          -2.70381954160710      1.93443566490866     -0.85948539656457
  C          -2.76847919692092      0.45420354706837     -2.90278349680022
  C          -0.03463163528222      1.79809218615683     -1.95665631823453
  H          -2.49978837046644     -0.18730036747799     -0.87551440791657
  H          -2.51238123139749      2.80173000185906     -1.48590607753505
  H          -2.23735084149977      2.08947837801453      0.11049340147021
  H          -3.77789810538522      1.85160245769305     -0.71342211027490
  H          -2.51108569674743      1.28706754827553     -3.55281863863377
  H          -3.85181330211781      0.38733433662519     -2.84597969906237
  H          -2.38351342466032     -0.46111668423405     -3.34508848841595
  H           0.97433537068355      1.54311225567467     -2.27811897376830
  H           0.03743142861403      2.53907228541369     -1.15041016437010
  H          -0.55154435846504      2.25429373675466     -2.79971539000501
  C           3.33556826191615     -0.88748561265984      3.02991953862359
  H           2.25933571126522      0.95180003275474      2.95525854259183
  H           2.84863518917480      0.42268812382821      1.38773975080729
  H           2.86010247252460     -1.29325978076341      3.92044914429747
  H           4.23986378131423     -0.36382194771014      3.33482387427232
  H           3.62389402516174     -1.71321401592910      2.38661327345883
