19
Coordinates from ORCA-job NEB E -30.424266526520
  C          -0.16581831136631      1.17388656094348      0.29432600326238
  C           0.23111086784133      0.35313029792032      1.42968615909171
  O           0.50829141776281      1.03852072420911     -0.86717548647343
  H          -0.78450684388085      2.05639898553845      0.42224868460195
  C           1.27238630133650      0.82677814935534      2.18768983185306
  C           0.63084056904011     -2.15532356990796     -0.47494824390198
  C          -0.66837386105617     -2.04004289372419     -0.28529893564729
  C          -1.31609605180578     -1.34258871671738      0.88078380983258
  O          -0.41312458447681     -0.79432515328765      1.80705102547507
  H           1.03145505623348     -2.66450404348155     -1.33396124675482
  H           1.34870070068351     -1.74714249079601      0.21641246368422
  H          -1.38174362001051     -2.45701169610130     -0.98355492600761
  H          -1.91241173610802     -2.06174412141687      1.45314047955204
  H          -1.98964369550730     -0.55884338735949      0.49707176793974
  C           0.37841205708684      2.07373284608220     -1.81098671112171
  H           0.95541988350259      1.77052657671487     -2.68222446734126
  H           0.77533035067750      3.01398320064914     -1.41561836624218
  H          -0.66870056190876      2.21993161710662     -2.09601324923967
  N           2.16847206195582      1.29463711427287      2.76137140743719
