19
Coordinates from ORCA-job NEB_reactant E -30.519432757170
  C           1.11872790440529     -0.25286405016757      0.01145373730770
  C           1.07061490712848     -1.05071012491900      1.09651016779019
  O           0.55788160329992     -0.52242511177085     -1.19870121041439
  H           1.65133022884263      0.68706192190789      0.10118318695158
  C           1.70686899102260     -0.54653575515135      2.26088369410480
  C           1.34871437073489     -4.86464201593637     -0.93546560845661
  C           1.24819817637851     -3.59732504246563     -0.58514611324139
  C           0.08174746468613     -3.02105487295435      0.16147613630817
  O           0.47933900119215     -2.26305843783441      1.29175654463582
  H           2.19652408160214     -5.23734487344339     -1.48406314487161
  H           0.58061332184856     -5.58121971310998     -0.69553432859988
  H           2.03058561317246     -2.89150295089079     -0.82973496268762
  H          -0.54130090473232     -3.81841575742941      0.57429466550185
  H          -0.52281431253158     -2.40565052078443     -0.51623394037254
  C           0.91465289112425      0.35784609723062     -2.23910570282838
  H           0.34586802004870      0.04305970618480     -3.11184670098156
  H           1.98498550665498      0.29707261830412     -2.46063313821650
  H           0.65789507264491      1.39163639300318     -1.98784653038486
  N           2.22496806247730     -0.12332750977309      3.19195324845523
