17
Coordinates from ORCA-job NEB_product E -28.573996092620
  C           2.64661536589255      0.16023436377474     -1.83400616525135
  C           1.45293532285864     -0.63255290373225     -2.34992785139441
  I           1.95406918007644      1.02723362761840      0.04879744721831
  H           3.45377514754738     -0.51589671878065     -1.54761724628142
  C           1.41235019889229     -2.04807715482494     -1.85056224037073
  C           3.17148533252433      1.25823902858006     -2.73131328071607
  C           2.20707504805692      2.33026622910600     -3.08100462637415
  C           2.48222317239532      3.61265622893640     -2.91803467214122
  O           0.63030173184329     -0.16283100192983     -3.08836168286998
  I           3.86389936771839      0.25936987689445     -4.56771884869251
  H           4.08037282235231      1.68614465349971     -2.30200958729158
  H           1.25814654276462      2.00351623322636     -3.47988077709300
  H           1.76658660472465      4.37631459140105     -3.16608304252710
  H           3.42773121038611      3.95052223844872     -2.52334606632844
  H           2.16798333992079     -2.62288368713302     -2.38680246114066
  H           0.43654240103886     -2.48318756579771     -2.04941816664891
  H           1.63440721100710     -2.09896803928751     -0.78691073209678
