21
Coordinates from ORCA-job NEB_product E -45.535903395950
  C           1.66647347953728     -1.35443732104332      1.31098998149299
  C           2.88295783247033     -2.21998750176000      1.58830730077674
  C           1.50803647403083     -0.95207024028432     -0.15141316284713
  H           1.77911694366428     -0.43603437766612      1.89689968151240
  F           3.28381014207423     -2.94817395862257      0.53589207154702
  C           0.48472784174431     -2.17159139227755      1.92353255711240
  C          -0.87077085143256     -1.61196086898084      1.59156539696858
  C          -1.57567097811055     -0.87368160534845      2.42765640062896
  O           3.44215492781690     -2.31426360377439      2.62200775198218
  O           0.64912724725638     -3.49930815496940      1.46955062679789
  H           0.63308016031082     -2.14004573568414      3.01770845430094
  H          -1.25262298959421     -1.88886085312403      0.61987148249930
  H          -1.20278697632771     -0.60527950346007      3.40271624991798
  H          -2.54768559872395     -0.49543107730927      2.16474747837514
  Cl          0.99088099907459     -2.27198333753432     -1.19863578722450
  Cl          0.32824546175355      0.37815822224088     -0.27782306857946
  Cl          3.07114180458717     -0.31036522958878     -0.74559220574608
  C          -0.14258130385435     -4.43613943224351      2.16006305203583
  H           0.10353375208786     -4.44253328929537      3.22842030687807
  H           0.09077610234104     -5.40479238078956      1.72475347570071
  H          -1.21024447070623     -4.22481835848484      2.04198195587007
