20
Coordinates from ORCA-job NEB_product E -40.044817096590
  C           1.21032892029726     -0.59090631351114      1.18713732104326
  C           2.50736720258817     -1.30734170956379      1.60087915710389
  C           1.12261019083758     -0.06178590518512     -0.23178495779277
  H           1.17431450971489      0.30146243707306      1.82990997037713
  C           3.20847298587926     -2.18917493080613      0.58241041892823
  C           0.00581244385182     -1.47806374857797      1.60085023768723
  C           0.11666765633281     -2.93135524656420      1.25212191956036
  C          -0.70338096382395     -3.55720404215752      0.42866897795048
  O           2.90340578219626     -1.18821930905207      2.72429316703196
  H          -0.07666556676693     -1.40051762345302      2.68845416578501
  H          -0.90773128534421     -1.06378354067605      1.16692965767933
  H           0.89049089479172     -3.47688011035838      1.77601295090827
  H          -1.49662485280762     -3.04187774360689     -0.08789205673414
  H          -0.61520314660252     -4.61127518739436      0.23336269065122
  Br         -0.43682168707946      1.12613386725674     -0.39094027812131
  Br          2.70218513691758      1.04204931221036     -0.64132483533971
  Br          0.93924611833762     -1.39725889943534     -1.63483635884895
  F           4.20231290449887     -2.89343535031485      1.19255827733236
  H           3.68121804549963     -1.58671492738654     -0.20291100107645
  H           2.52029471068123     -2.91535102849680      0.13550057587460
