18
Coordinates from ORCA-job NEB_reactant E -29.779048946730
  C           1.74012980277710      0.07771184501893      0.01831003863685
  C           1.49552741396916      1.36848430905843     -0.27737607443252
  C           1.91524723124889     -0.51502312257862      1.27489860178275
  H           1.82131353216660     -0.62376690316507     -0.80040509845410
  C           1.35170797739544      1.82378897978566     -1.69845063818849
  C           3.45802817117995      3.15497730661854      3.17732066849154
  C           2.94137195127531      2.26257916310028      2.35679852569029
  C           1.49370967081546      2.27386403704471      1.95968224775151
  O           1.33225484104108      2.41115958895572      0.55855853078640
  I           5.47765526666217      3.15415647564604      3.74814366113671
  H           2.88691730612525      3.94617855868672      3.63328762705107
  H           3.54681995328286      1.48121777228041      1.92138154054567
  H           0.98630865390730      3.14351763404248      2.38617854877694
  H           1.00245697118930      1.36067817794082      2.31592203195948
  N           2.07858739943624     -1.06296367638847      2.27273868651936
  H           2.18355053113968      2.47805142205443     -1.95634851504873
  H           0.43579438522804      2.40185123437150     -1.80363510771302
  H           1.33261894116017      0.98323719752748     -2.38400527529172
