22
Coordinates from ORCA-job NEB_product E -39.796724604660
  C           2.34033858841295      2.20274014803123     -0.23477885518982
  C           1.18920541691080      2.55386830667222     -1.10851640591017
  C           1.92625701436589      0.95633720737246      0.56693845906368
  H           3.20171512278190      1.94473196964913     -0.85913746590734
  N           1.09733350664550      1.66757933394007     -2.38404591328859
  C           2.70434780812713      3.37544168683888      0.69778307529089
  C           3.83722526967536      2.98520072696456      1.60390499523124
  C           3.78023423053735      3.03013072530470      2.92088949362618
  O           0.32686709490233      3.35414136354412     -0.96695473374151
  C           3.11048613690354      4.60661437466988     -0.12263673057705
  H           1.82781265605677      3.65205723689497      1.29098496742741
  H           4.74285158218924      2.68281988313873      1.09586176505362
  H           2.88715900600378      3.33589963682268      3.44125247005597
  H           4.62242013034545      2.76247195449500      3.53501332669597
  H           1.01357324659045      1.14829658796029      1.12684836110265
  H           2.71734686095639      0.70706319319379      1.26871490540160
  H           1.77031634017491      0.10942615909898     -0.09583440489239
  O           0.15720768780945      1.89110820578243     -3.09644621584829
  O           1.95821504732553      0.83725586220759     -2.54803898286838
  F           4.10535529266405      4.28334075085513     -1.01236014904715
  H           3.50786554545161      5.39156970364684      0.52783867873652
  H           2.27406641516966      4.99690498291633     -0.70958064041503
