20
Coordinates from ORCA-job NEB_reactant E -53.213878804080
  C           1.14553554813029     -0.15417697556383      0.00349732090599
  C           1.55472702597398     -1.23982929387259     -0.64726422781082
  I           0.65552620786549      1.56618413666005     -1.06007819975929
  H           1.01845222932346     -0.09157551440383      1.06723793087911
  C           1.91508741715804     -2.52276038310792      0.06579628847235
  C           2.34435047256173     -3.56461564475276     -3.49519627190891
  C           3.21618639359712     -2.61863137196490     -3.18749756670059
  C           2.81445841379642     -1.26429698597473     -2.68825057803762
  O           1.56074260970557     -1.24923739858047     -2.00725268846565
  C           2.74755982772577     -4.91506841492714     -3.99103994940260
  H           1.27854344083708     -3.42828805601586     -3.39311814000250
  H           4.27805999550075     -2.77751370301850     -3.31213572615261
  H           2.67525498088844     -0.60178028027787     -3.55227097178045
  H           3.60031947638108     -0.83871478820791     -2.05710899847291
  Cl          3.64764213460476     -2.91567549187996     -0.15907293696610
  Cl          1.62051689229127     -2.43713117922326      1.81084758388136
  Cl          0.93902323548575     -3.86210453067042     -0.59265880165708
  F           2.36064101286382     -5.89259453414524     -3.15182044328888
  F           2.18815127466455     -5.19999259999357     -5.17958753358116
  F           4.07152141064464     -5.05189699007930     -4.14892609015163
