20
Coordinates from ORCA-job NEB_product E -53.227048200400
  C           2.14026117591894     -2.10283846050888     -1.27398589652863
  C           0.86368008456580     -2.76072000572293     -0.82279159316400
  I           1.72406340314617     -0.00891919039514     -0.92990634824854
  H           2.99219261341822     -2.35449842060508     -0.64330954592087
  C           0.87281790834818     -3.28503073615517      0.62093788976269
  C           2.43080558827393     -2.33856437279929     -2.75529368706695
  C           3.52200729882735     -1.43860156179937     -3.27047850650080
  C           3.38549605856431     -0.66441233560219     -4.32929432669724
  O          -0.09362151430348     -2.90294624018973     -1.52385927864220
  C           2.88025186161640     -3.78869495522234     -2.95227472333890
  H           1.51069768103294     -2.20668680892862     -3.33645345311831
  H           4.44845066870055     -1.47736269914361     -2.71378395995282
  H           2.46859902978468     -0.62413493458702     -4.89328038809488
  H           4.18820398702163     -0.03498519782983     -4.66939389460517
  Cl          1.80932836759197     -4.81048235404479      0.50886928107914
  Cl          1.67456740508310     -2.20250776984235      1.76439519614176
  Cl         -0.76870337119554     -3.62408217258305      1.16579221014032
  F           3.96150504206313     -4.08228939312362     -2.21287454722093
  F           1.93972313373996     -4.68112907288334     -2.61882013356355
  F           3.20377357780174     -4.03161331803365     -4.22579429446014
