21
Coordinates from ORCA-job NEB E -40.516331717710
  C           0.43788400708119      0.82321991548910     -0.84859337633209
  C          -0.45669680002102      0.83742948304336      0.24448160346968
  N          -0.02335449289275      0.61463221942469     -2.17815622878101
  H           1.25882202336167      1.52969957815758     -0.80690317767955
  O          -0.08079596009681      1.66731909075918      1.24445046081287
  C           1.27090104429164     -1.08630124999442     -0.58258248437781
  C           0.09211031522356     -1.82629224347423     -0.57704479778302
  C          -0.82118226764333     -1.67023155832288      0.46661687748428
  O          -1.40591642445442      0.02780816649577      0.39935965340646
  O           2.10642003513459     -1.22677853686950     -1.63016015719561
  H           1.72215252722974     -0.79609036657873      0.36428579889202
  H          -0.24570797481637     -2.21972813062113     -1.52284699354492
  H          -0.44580586560035     -1.58462654634604      1.47829520812988
  H          -1.77470608157570     -2.16698552517707      0.38185815330449
  O           0.65632785976647      1.11312535085021     -3.05699850917769
  O          -1.03162352030863     -0.02901960852902     -2.36363713770767
  C          -0.89354754813076      1.66523830206994      2.40854895449190
  H          -0.56704300578621      2.51641108072652      3.00064557072224
  H          -0.75765096195452      0.74100447701030      2.97478524537012
  H          -1.94706086833425      1.76727307870171      2.14199571709004
  H           2.90647395952625     -0.69710697681536     -1.53840038059460
