21
Coordinates from ORCA-job NEB_product E -40.562261400700
  C           3.22307496811509     -0.90744690426718      0.35147478581670
  C           2.09544055853063     -0.67082456374118      1.36067524730172
  N           2.71145348347299     -0.62285984695324     -1.01205362313328
  H           4.03082919424143     -0.19496145460572      0.54580683888043
  O           2.60837406743514     -0.51129769489884      2.57429862840566
  C           3.74674376949467     -2.37291455513450      0.51211589425009
  C           2.58835732923397     -3.33184168617932      0.60822946224942
  C           2.22769841032429     -3.92387257187600      1.73014132197206
  O           0.92930948113648     -0.66513730432360      1.09359999826542
  O           4.64842400340679     -2.70095378786740     -0.50151663817605
  H           4.32267964976258     -2.39367733268743      1.44459661915062
  H           2.05814123310168     -3.51034947982559     -0.31668342562138
  H           2.75323524752033     -3.75581892332646      2.65657881389322
  H           1.39256152558239     -4.60127719017272      1.76791987644276
  O           2.54028855669818      0.53665204527196     -1.27759313120696
  O           2.51707192558106     -1.55256744808287     -1.75535468535768
  C           1.66790209397048     -0.34106382073750      3.63263680399310
  H           2.25446821663308     -0.22068598257423      4.53906248990567
  H           1.02024857594918     -1.21643893898612      3.70270355584286
  H           1.05256013453776      0.54131214600058      3.45076697051168
  H           4.15173757527177     -2.82977470503264     -1.32430580338608
