22
Coordinates from ORCA-job R E -32.614860970850
  C          -1.50062448297817      0.13994136042438     -2.90243673810011
  C          -0.22969260810596     -2.32831701922815     -1.68382433547017
  C          -1.49707739039530     -1.94883333935327     -1.55926078519337
  C          -2.12390053910597     -0.81333586647002     -2.21159540990867
  C          -0.78457875373236      1.06230801109115      0.12788137239320
  C           0.15089917154028      0.23000290026875      0.54082287368345
  H          -2.15603495643466     -2.52741703134443     -0.92259877237427
  H          -3.20079692353145     -0.75568982237148     -2.10212561048961
  C          -2.19064628705966      1.28487187258873     -3.56006649465208
  H           0.15789643014132     -3.18280777776503     -1.15654422637955
  H          -0.42626030735213      0.12039723221072     -3.01676461264244
  H           0.46930724972119     -1.80582068631342     -2.31288493074964
  H          -1.79079315195561      1.00722766412817      0.50177624195824
  H          -0.03250352252729     -0.54857975696671      1.26518708714125
  H          -0.57887206074283      1.82352219765082     -0.60487510791475
  C           1.56682482730350      0.27488937813629      0.04889269893805
  H          -2.02364355059052      1.25327827325760     -4.63710992687264
  H          -1.78761088390426      2.23096646513525     -3.19828245980948
  H          -3.26167551034147      1.26203291554875     -3.37149494243654
  F           2.10567752836953     -0.96949871404383     -0.00063169339053
  F           1.65917190408846      0.77898819827179     -1.20642496560099
  H           2.22457381759335      0.88460354514393      0.69515073787067
