23
Coordinates from ORCA-job NEB E -60.048401154230
  C           0.72232886518615     -0.30423446864832     -0.22594048842375
  C          -0.36430902995652     -0.34016485395733     -1.26697700598519
  C           0.69394651516565     -1.61441985531548      0.58482085656548
  H           1.70795384877256     -0.27878042585019     -0.70000594368711
  C           0.01960761315827     -0.83768803033245     -2.62622647067128
  C           0.43534980573150      1.04479053616908      0.47497787995312
  C          -1.01928737108979      1.27654837352517      0.34625919721272
  C          -2.04837673245413      0.25101340403173      0.08225068806594
  O          -1.64262301891051     -0.63649962996205     -0.91200031227647
  C           0.97521062277671      1.33208672061514      1.89396238864221
  H           0.96484535343254      1.78633495533057     -0.14421295232421
  H          -1.39841591447337      2.17645347027145      0.81318512569163
  H          -2.96023011596364      0.72706132355411     -0.29816864329893
  H          -2.33838667856704     -0.28046039539906      1.00286440850361
  F           1.67050223000086     -1.64871726879842      1.51284454307756
  F          -0.46697271370988     -1.79701376818521      1.24831338788437
  H           0.83652838949953     -2.47547176828419     -0.08612358085837
  F          -0.99495003212205     -0.85173563824059     -3.48309040556525
  F           0.98975300031610     -0.06952276588922     -3.15588402722221
  F           0.53578982502890     -2.09489813878344     -2.60793377490453
  Br          0.71069244641525      3.24792769845451      2.26219140920659
  Br          0.06416605563939      0.36402638596925      3.30904740592069
  Br          2.90687703612353      1.02336413972494      1.97584631449338
