23
Coordinates from ORCA-job NEB_reactant E -60.107395086320
  C           1.92783635652535      0.44015993386545      0.19092877200795
  C           1.56911571879719      1.34332109004940     -0.73027021077511
  C           1.90754575394465      0.48870998102718      1.68792463422316
  H           2.35847664667542     -0.47180359446366     -0.19390261352865
  C           1.80969936182067      0.90592151222496     -2.17979809545026
  C           1.62102412692240      3.95293611002221      2.57361234851835
  C           1.74194597421690      3.71253250630033      1.27789032364314
  C           0.60256261071402      3.24812998246127      0.42738237145433
  O           1.01870790539578      2.55657347240043     -0.74045937628194
  C           2.69006351575625      4.43857796824290      3.46942353597525
  H           0.67511598303150      3.79796634103617      3.07915668801851
  H           2.67972746738801      3.85210110903917      0.75668103570640
  H           0.08067818015742      4.12324998269248      0.02146232150195
  H          -0.11453736145112      2.65304191275647      1.00026517981945
  F           2.87893565209900      1.30887244070436      2.17360079514078
  F           0.74237728470094      0.95521331558038      2.20689592042799
  H           2.07915299813443     -0.50712315572339      2.12052552102186
  F           1.11500480063574     -0.20374946668256     -2.47304900639836
  F           1.46274278042528      1.83310091101072     -3.06343116256928
  F           3.09890795240023      0.61082516022443     -2.39504278353974
  Br          2.18129356821812      6.22699457805414      4.15028620996638
  Br          2.85139555061147      3.24098990681443      5.01577508163121
  Br          4.43652717288033      4.59555800236272      2.64994250948660
