20
Coordinates from ORCA-job NEB E -36.448155468480
  C           0.25153578158673      0.95657655912054      0.19460656372128
  C          -1.02627438860915      0.51483321830718      0.66681662451356
  C           0.27531812142635      1.61667103124419     -1.16735414453688
  H           0.81453612276642      1.52349274204789      0.93556644023468
  N          -1.18174241195069      0.42209488230993      2.11136453689773
  C           1.14494440468788     -0.57070335124628      0.06370149292823
  C           0.29788986522853     -1.40959677023994     -0.72731434331956
  C          -0.97773918375221     -1.76024366274365     -0.25598543436352
  O          -1.74802429509296     -0.26551796033844     -0.03194683489463
  O           2.39628977550923     -0.26832747196030     -0.40331980598112
  H           1.24337403514630     -0.84045814390227      1.11471002149193
  H           0.48082097357418     -1.42848848353263     -1.79436979217260
  H          -1.07658676062307     -2.11432664877535      0.76510612034607
  H          -1.63823610771625     -2.26650623675793     -0.94668349484821
  H          -0.31781170476090      1.05679996875581     -1.88604792116079
  H           1.29471041316296      1.72677845679322     -1.52879870177778
  H          -0.15244219049799      2.61281974612449     -1.07185666975467
  O          -1.96599364450585     -0.40507723909390      2.53075700087701
  O          -0.51595232552338      1.17494886327918      2.80011626016924
  H           2.40138351994388     -0.27576949939174     -1.36906791836996
