20
Coordinates from ORCA-job NEB_reactant E -36.473938327090
  C           1.45867843327240      0.19178850634657     -0.14922819942886
  C           1.75612819111578     -0.95934997288644      0.45919572539289
  C           0.64710889326300      0.30005284225099     -1.38544231480648
  H           1.82122982205879      1.10662163729175      0.29832466007729
  N           2.54320011865677     -0.93044991380664      1.69063065442692
  C           3.64303964289636     -4.57241828050706      0.45227894028846
  C           3.48621111942439     -3.36500317667156     -0.07865548657914
  C           2.22777839263861     -2.94257444669625     -0.76122021187873
  O           1.33811680754229     -2.18735794526489      0.08705165791238
  O           4.72647749113128     -5.01763945805934      1.10740167249170
  H           2.88283155062246     -5.33665925095182      0.37452774346868
  H           4.26600200970169     -2.61987372890034      0.01945044628026
  H           1.63241930184845     -3.81171295327620     -1.04337573128450
  H           2.45218342743832     -2.34214037408771     -1.65269597224264
  H           0.27962057779389     -0.67358015215503     -1.69823186682518
  H           1.24419854582175      0.73993012785400     -2.18424016907625
  H          -0.19842539290736      0.96369596660721     -1.21013711195395
  O           2.71816293550112     -1.98051617180220      2.26532426822040
  O           2.97629746965530      0.14493262568722      2.05623028144045
  H           5.35434066252470     -4.29614588097223      1.24551101407630
