21
Coordinates from ORCA-job NEB E -53.002393221220
  C           0.99559076602783      1.36753278590884     -1.31468749580322
  C           0.04845274034511      1.67931171251701     -0.39883383228876
  C           1.00011673841817      0.42674860436829     -2.44896628851383
  H           1.91318601686521      1.93507729004659     -1.22233445777303
  C           0.42048792043100      2.76808844536591      0.46096522378732
  C          -0.26070631746581     -0.83035730582164      1.55750741157562
  C          -1.09453645661340     -1.06933577104108      0.56158224934783
  C          -1.65855947881474     -0.04422153337528     -0.36171507872783
  O          -1.19541327582450      1.26748782948565     -0.12785372670079
  C           0.26076775309515     -1.92075439386854      2.44139078175763
  H           0.11562535730020      0.15024561130301      1.81582393539749
  H          -1.44371463740057     -2.07470387963516      0.36224146385540
  H          -2.73768076353223      0.02140974103887     -0.19260121132006
  H          -1.51542438618880     -0.36711096701745     -1.39433916115759
  Br          2.56723342195524      0.74224378546094     -3.57501996190588
  Br          1.10180234786571     -1.49542850994822     -1.86830585252413
  Br         -0.57101229075755      0.63779494162834     -3.63628175870246
  N           0.71435184087451      3.66010292428323      1.11914792108585
  F           0.47915584891449     -1.47742179766801      3.68371747512243
  F          -0.57204502792117     -2.96314209162772      2.53615165406778
  F           1.43232188242618     -2.41356742140354      2.00241070942022
