17
Coordinates from ORCA-job NEB_reactant E -30.325707757740
  C           1.72839256999510     -0.25337026189176     -0.44274577099672
  C           1.15062533944646     -1.32972735731995      0.08866524630402
  O           2.43465604981174     -0.31835058557882     -1.61205391449308
  H           1.64954322146042      0.70331225628620      0.05243996306501
  Cl          0.20407860721932     -1.08491676521190      1.54836893645350
  C          -0.71238737350347     -3.18627859278654     -2.96521986982855
  C          -0.72886375169123     -2.70894726165266     -1.72209520254446
  C           0.05776077293409     -3.31292543100116     -0.60800678917103
  O           1.27463549125669     -2.58374671590299     -0.34569536432820
  N          -1.46692828338894     -2.70089296164133     -4.00997866785778
  H          -0.14503525862073     -4.07623854679500     -3.20205945762828
  H          -1.28645453001945     -1.81304958891830     -1.48701234864391
  H           0.40492370437694     -4.31471568051727     -0.86361029500946
  H          -0.53192809468101     -3.35060488996360      0.31627315907746
  H           2.94746933795330      0.48804187831884     -1.72376173599786
  H          -1.84325885077786     -1.77485286643751     -3.87318872404922
  H          -1.10242895177139     -2.86073662898625     -4.93481916435144
