17
Coordinates from ORCA-job NEB_product E -30.334624362280
  C           0.78478699299977     -0.82967264702837     -1.43987692485946
  C           1.58107418384266     -1.21438517881191     -0.21361404893962
  O           1.57569567367878     -0.12276735778961     -2.33880335380187
  H          -0.03976902729686     -0.16420067469659     -1.16756707589137
  Cl          0.57016963227998     -1.43060000762209      1.21315769828016
  C           0.21460167794449     -2.15132812510745     -2.05201450932316
  C          -0.96775430536810     -2.64001715531968     -1.26255015964096
  C          -1.04946352751984     -3.83916541063060     -0.71705817737396
  O           2.74826818095164     -1.41194396053667     -0.16313622072630
  N          -0.09390273125895     -1.87998396101617     -3.44669574748889
  H           1.00764051047131     -2.91133966962047     -2.04362526763623
  H          -1.80093656811434     -1.95058988050836     -1.21176664782050
  H          -0.23068529457919     -4.53853930637349     -0.76261742532419
  H          -1.92996333567462     -4.16771784273791     -0.19268806941028
  H           2.26728062887590     -0.70093002195241     -2.68342163779402
  H          -0.77679855934266     -1.13421245639495     -3.52435720979617
  H          -0.46894413188997     -2.71010634385325     -3.89026522245316
