18
Coordinates from ORCA-job NEB_reactant E -36.723944451860
  C           1.93837221861009     -0.17302574578652      0.15620174846310
  C           1.11758051306367     -0.16428088222752      1.23224023286132
  N           2.26303174826322     -1.33928081589386     -0.56904455028464
  H           2.39901461873402      0.72784606864653     -0.21101654307085
  Cl          0.84215460125335      1.36750293106720      2.00265103282676
  C          -0.32766425831162     -3.33455163342169      4.06897264264417
  C          -0.82844277661278     -2.54275594238029      3.11852364062805
  C          -0.32484370331042     -1.16519869346740      2.86950554429680
  O           0.53591578923311     -1.21902158431527      1.71198245486867
  N          -0.79064389031334     -4.58694442564485      4.37079150936631
  H           0.44312784382704     -2.97023439824588      4.73562508536948
  H          -1.58441903236226     -2.90738942768256      2.44155691746837
  H           0.25496885502967     -0.79420158207565      3.72135054462865
  H          -1.14345142364991     -0.46799180861042      2.65740953996150
  O           3.01541573689210     -1.18781785739708     -1.51453583609733
  O           1.79455931649095     -2.40639925929113     -0.22822867874255
  H          -1.36059206204508     -5.02715161517771      3.66531688064765
  H          -0.15668409479181     -5.20790332809591      4.84459783416454
