18
Coordinates from ORCA-job NEB_product E -36.721372998900
  C           1.57603053617577     -1.42268681258247      1.61542639842377
  C           0.99848727405905     -0.07183973955913      1.27570039513818
  N           1.54928869481415     -2.27469325808834      0.38720271098133
  H           2.62833552329147     -1.32416220622623      1.89923886498313
  Cl          1.35787221074577      1.09768117337857      2.53722847405177
  C           0.77518341748565     -2.05696658111464      2.79672199509934
  C          -0.71008791308753     -1.86281122867544      2.61721810851634
  C          -1.45482268955174     -1.16440401051411      3.45291213320747
  O           0.36419217506675      0.22858613923950      0.32528329245998
  N           1.18662281977661     -3.44434660411566      2.91570193155748
  H           1.10209356924997     -1.53146458913670      3.70102113835179
  H          -1.14292763990140     -2.36624261586191      1.76454283982942
  H          -1.03317319163040     -0.66015575720320      4.30783612834355
  H          -2.51701038627818     -1.06264262485493      3.31438687188142
  O           2.55323018449951     -2.26077282370621     -0.27245575839294
  O           0.54894071705768     -2.89218671055194      0.14301701322854
  H           0.73994720456680     -4.01182341045588      2.20161341715419
  H           0.92309749366007     -3.81766833997125      3.81860404518526
