19
Coordinates from ORCA-job NEB E -33.618046815270
  C           0.80476876693496     -0.72726107734123     -0.68130532694886
  C          -0.32604926043893     -1.32518771229064     -0.12664106785313
  Cl          2.36721149127140     -0.99509668197057      0.04071050818095
  H           0.88086629861802     -0.63994482710280     -1.75753214714807
  C          -1.56339374165032     -1.45317852191392     -1.00831461302674
  C           0.44597269765592      1.21357111473575     -0.07205144960062
  C           0.35616824017785      0.96655074026549      1.31003807149726
  C          -0.70461025407254      0.25533480688288      1.83938267901531
  O          -0.48016891762860     -1.44367571767962      1.12623042830154
  N           1.48761047497087      1.95642420766060     -0.56906437157603
  H          -0.47288951466390      1.32626463140450     -0.63628868985164
  H           1.27207149079208      1.03277275351558      1.88013088133620
  H          -1.69031077370982      0.37562264125008      1.41306428693697
  H          -0.69216242485644     -0.00515003938973      2.88482304950306
  F          -1.42385298149361     -0.79994146735826     -2.20772909176899
  H          -2.43561944772808     -1.02671606150245     -0.50077313960652
  H          -1.75648821790389     -2.50748612183236     -1.23512982315993
  H           2.37943280831087      1.78290712774200     -0.12595136142030
  H           1.55144326541416      2.01419020492472     -1.57359882281045
