19
Coordinates from ORCA-job NEB_product E -33.641717882710
  C           2.07685899263529      1.79046062407912     -0.72224756603912
  C           0.75824259091446      1.58097143344249     -1.45647562313498
  Cl          2.00753618266630      0.95979865172050      0.85188893871748
  H           2.91569281262269      1.36872989728189     -1.28021917100671
  C           0.92166230459499      1.71184252127464     -2.95873473661573
  C           2.30675656675444      3.30637129496123     -0.50279341477314
  C           3.38432141639257      3.52522134516333      0.52511735685749
  C           3.23323086388863      4.26523865279221      1.60634542258558
  O          -0.28503911331605      1.39124855362140     -0.90375765608000
  N           2.64360633798725      3.90146406755089     -1.79306613099931
  H           1.36801588998556      3.75091363588196     -0.15640777239371
  H           4.33294000910074      3.05667136358834      0.29640130520802
  H           2.29204330131472      4.73143657318086      1.84684681943534
  H           4.03876299123470      4.42546541442001      2.30189287539919
  F          -0.28154289786196      1.68907915665850     -3.60192855496942
  H           1.51781624859421      0.87997555830030     -3.35068155477024
  H           1.41507825242899      2.66962100103232     -3.17402278130350
  H           3.60798474879376      3.68871695844625     -2.03156848243930
  H           2.55473250126871      4.90967329660374     -1.74578927367795
