19
Coordinates from ORCA-job NEB_reactant E -33.648309038610
  C           2.30158502803345      0.55117558702269     -0.39810203077088
  C           1.31845981422669      1.35956126920560     -0.78813357763279
  Cl          3.42998694093886      0.78680653758822      0.88928087633265
  H           2.45272460273123     -0.38496592595665     -0.90832122574852
  C           0.42086369351589      0.93645769599475     -1.93435824153355
  C           2.95957704163081      5.10905935843152     -0.84396231055512
  C           2.91773809152853      3.90735198659761     -0.27038654364300
  C           1.72099133575128      3.40093885613685      0.46560177582025
  O           0.88717426454409      2.56140513001360     -0.34814491076353
  N           3.98599816407964      5.57337118458833     -1.63434236656795
  H           2.12286950885601      5.78978667107935     -0.75712285887436
  H           3.75064903984487      3.22776636881230     -0.37212621424994
  H           1.05488306802433      4.22650859307749      0.72811913047902
  H           2.01059525662702      2.86878344653654      1.37568378381869
  F           0.62178612653995     -0.35956531030011     -2.31438135710878
  H           0.61008531029015      1.56646970236710     -2.81117316477336
  H          -0.62726483521942      1.03501311440973     -1.63254597462640
  H           4.84048581944413      5.03921779052753     -1.58944798570591
  H           4.12491172861251      6.57035794386755     -1.65493680389650
