18
Coordinates from ORCA-job NEB_product E -38.480348320940
  C           1.30602129598697     -1.45373331901947     -0.12279199813458
  C           2.58957561031072     -1.47745233319025      0.71304300046249
  C           1.61422242414757     -0.92366144061123     -1.52995618652748
  H           0.63075126175598     -0.71594450259172      0.33518335110020
  C           2.41108227009352     -2.13452605356600      1.99761169918418
  C           0.60745751492705     -2.82118281607529     -0.08219718226784
  C          -0.49293093761283     -2.98068325016817     -1.07334950165612
  C          -1.74670062049755     -3.18773227905573     -0.71465601551056
  O           3.62227262830471     -0.96637261257456      0.38160549061188
  Br          1.98303015633034     -4.24341033274236     -0.36527301389971
  H           0.24123573755604     -3.00467852123992      0.93158826535008
  H          -0.21088079198014     -2.93821271182492     -2.11485382421868
  H          -2.04461492812949     -3.24847780699076      0.31979266829060
  H          -2.52639217433611     -3.30032864865451     -1.44661875113919
  F           1.97808283283729     -1.89633577162600     -2.38544881956617
  F           0.50851793734195     -0.34399625816557     -2.05897441220949
  H           2.41729674033683     -0.17007931960106     -1.50965880179606
  N           2.25847304262715     -2.60339202230250      3.02975403192647
