19
Coordinates from ORCA-job NEB_reactant E -37.135298461830
  C           1.59307081898901      0.02869196221340     -0.03684065545378
  C           1.47539518189948     -1.13358868064338      0.60639503506372
  I           1.53045976171739      0.12984434443332     -2.13067523311647
  H           1.72377010709415      0.96849811908393      0.46455843589862
  N           1.58319676018989     -1.25308257356462      1.98324007105215
  C           3.46852327501618     -4.94049854443085      0.74413758989353
  C           3.13974973421451     -3.66073355559244      0.69209885481289
  C           2.41903184105278     -3.02804739716054     -0.45685853856439
  O           1.25610456634569     -2.31598008652971     -0.04910931974332
  C           4.20193096885814     -5.56273207884743      1.89323448095067
  H           3.25756360091296     -5.62646660604356     -0.06295528823042
  H           3.37462460348820     -2.99993704717371      1.51639939926020
  H           2.05678219841390     -3.78059887936463     -1.16004959244767
  H           3.10771068827116     -2.35231940153655     -0.98354944995092
  H           1.10463740080903     -2.05675733889391      2.36295573165671
  H           1.44113842576521     -0.40632261816071      2.51102687008241
  F           5.41505208655032     -6.03144777858993      1.49362044856844
  F           4.44823387199170     -4.67780523477548      2.88793267944385
  H           3.65662410842029     -6.41571660442320      2.33353848082378
