19
Coordinates from ORCA-job NEB_reactant E -37.880874994220
  C           1.74221738873158     -0.09233695519474     -0.00621583404352
  C           0.94620806395911      0.04288303591557      1.06349034588056
  C           2.28612475712878     -1.42475071879802     -0.40549286230691
  H           2.01121917955007      0.75897822896492     -0.60178090009973
  Cl          0.35987558665391      1.62768831132345      1.46232196513991
  C           0.07273598050169     -2.49127619513499      4.72844848448753
  C          -0.49041956076933     -2.11849298267626      3.57960487351353
  C          -0.26762285451181     -0.78088213973097      2.96296634286692
  O           0.58907585442750     -0.96658216690711      1.82534330299140
  N          -0.15822348585844     -3.68523373047009      5.36752089139911
  H           0.69548706747974     -1.80266497877187      5.28433676531133
  H          -1.10032636447224     -2.80687467046687      3.01547402216562
  H           0.21611512234923     -0.09849963933869      3.67085725705579
  H          -1.21156764722507     -0.33703206219505      2.62279353555207
  F           3.05242802562227     -1.98083277158629      0.57348450601150
  F           1.30117786124260     -2.33174704279936     -0.64777900152241
  H           2.90734339856824     -1.36652146221693     -1.31213186693524
  H          -0.56675396703854     -4.40922062689303      4.79636033343808
  H           0.56330559366072     -4.00950143302366      5.98989783909446
