19
Coordinates from ORCA-job NEB_product E -37.889315661960
  C           1.63405489062218     -1.15674819776368      1.79178335607858
  C           1.25951153411646      0.24901034215488      1.42061742383136
  C           1.26162749247065     -2.07745719912121      0.62677703369839
  H           2.70825908508880     -1.23674323534331      1.98064196937371
  Cl          2.19695996584056      1.44018133590395      2.30663571643538
  C           0.91029113727609     -1.52793124648653      3.12858342723321
  C          -0.53935344011453     -1.85656420958211      2.87567931145381
  C          -1.53173550258357     -1.01548560373174      3.09630072480203
  O           0.40838580042147      0.58970231075668      0.66856649666568
  N           1.66997389816478     -2.57888470686878      3.77499345832126
  H           0.97318090753831     -0.64577837652335      3.77752546954508
  H          -0.73013038326232     -2.85961406481748      2.51631660340020
  H          -1.35765219063450     -0.01634386459043      3.46047488665860
  H          -2.55771746624912     -1.28654664427269      2.91730605077562
  F           2.13246035045944     -1.89445606140324     -0.39175785464289
  F           1.35856796815149     -3.38407220806444      0.96462068482744
  H           0.24632730111160     -1.89545017961687      0.24477105348803
  H           1.61917616878195     -3.44539795357856      3.25083748491831
  H           1.31531248280025     -2.74972023705108      4.70792670313620
