73
Coordinates from ORCA-job A2R E -120.273110534630
  Ru         -0.31569114303205      2.28471791509919     -0.23316672963727
  H          -0.54933705696791      0.82769413498687     -0.68094082908228
  N           0.92799462371325      1.51252776394923      1.27082144500287
  C           2.21656355211862      1.24576414788851      0.99782889047872
  C           0.51630313371561      1.41900078901764      2.54692128433364
  C           3.14593981335296      1.00580981763656      2.00113444002890
  C           1.39594809912147      1.18011747231209      3.59071234983287
  C           2.74217948061750      1.00144643614558      3.32239688142935
  H           4.17221633857567      0.80577281467433      1.73834415024854
  H           1.02004751318982      1.13113934669288      4.60069262289600
  H           3.44803362405046      0.83008242202054      4.11923005009786
  P           1.63582669662273      2.32477816015844     -1.45348192841610
  C           1.75136598395251      1.58144659988966     -3.19715582851093
  C           2.71872511591721      3.89196432558414     -1.36403455388566
  P          -1.77132262541459      2.28281659425982      1.38654871846138
  C          -2.30089197693528      3.95491068648591      2.12970913113430
  C          -3.44655431672230      1.37973221792207      1.46892017665722
  C           2.61378551267758      1.13279621598323     -0.44020296457007
  H           2.29907458149886      0.13735971060878     -0.77906483937588
  H           3.69412137000846      1.22339045510107     -0.57294985169282
  C          -0.95999357580486      1.49669027117718      2.82979533446773
  H          -1.35325601166631      0.47329236080765      2.90896082321454
  H          -1.17807434426764      2.01855019180219      3.76796532289300
  C          -1.40801699861927      2.95014376123939     -1.56575055723410
  O          -2.09808760226356      3.34601299962934     -2.39860267339393
  H           0.06198394936321      3.69122464451568      0.24304228473500
  C           3.09328709842562      0.92593921807963     -3.52462045652857
  C           0.66767459598330      0.50622442115411     -3.28668432561757
  C           1.40110514143921      2.66841636852303     -4.21480638687187
  H           3.26977474666434      0.05990863322044     -2.89085290170702
  H           3.06654045474460      0.57873655480039     -4.55724849255003
  H           3.92993223558867      1.60795568475727     -3.42729384143972
  H          -0.32045139435898      0.94659882723560     -3.16505487153498
  H           0.71353973089354      0.01790022091312     -4.25947626918696
  H           0.79560935923845     -0.25546524627775     -2.52182286310781
  H           0.51922523341724      3.21673170903247     -3.87991057697502
  H           2.21922192254589      3.36676070450878     -4.36876347825097
  H           1.17004310477183      2.21154497586844     -5.17650243741618
  C           3.02916573665790      4.12962021063242      0.11799637151845
  C           4.05034156510050      3.82147476046644     -2.10974094473640
  C           1.89021385440055      5.06820568132105     -1.88400828320770
  H           3.75485812848886      3.41395422361027      0.49950823401805
  H           3.44533560474830      5.12785005790799      0.24713627885428
  H           2.12429269385495      4.07092995995554      0.72106556000545
  H           3.91642542660297      3.77887117998184     -3.18637361783588
  H           4.61850981896259      4.72483458208178     -1.88770635434551
  H           4.64773244199155      2.97087545768701     -1.78718632501865
  H           1.78476059999692      5.04340814617701     -2.96438960737910
  H           0.89548952852644      5.04937894617785     -1.43934029678437
  H           2.36754564753694      6.00919226818452     -1.61401550247394
  Cl         -4.59783321715150      2.34654402352787      0.54611004322086
  Cl         -3.15536332069242     -0.13828383258127      0.61664406804494
  Cl         -4.09599343368156      0.98001390474280      3.06887424939201
  Cl         -2.72560833323729      4.97417287930778      0.75005286992804
  Cl         -3.59505439520659      4.01145614809059      3.32705899150430
  Cl         -0.82518892477932      4.58452603244661      2.88178151599898
  C           1.07789118968839     -1.97271604139664      0.88950645386767
  O           2.14734502469044     -1.60620572645521      1.33492361537579
  C           0.92919193800407     -2.36104903337767     -0.53420375786502
  C          -0.30784872820695     -2.51511340991943     -1.15858493912884
  C          -0.36939104808587     -2.88293166534575     -2.49046423993931
  C           0.79231721153626     -3.10629143110436     -3.21237538864293
  C           2.02739054039055     -2.94962343767193     -2.60272121473522
  C           2.09392413412554     -2.57601001754575     -1.27510311847627
  C          -0.15119810149459     -2.05782076180394      1.75148834652577
  H          -1.22326723346760     -2.33073480026451     -0.62000268700196
  H          -1.33052679103107     -2.99345963927554     -2.96925360372489
  H           0.73547692261565     -3.39891974509876     -4.25024993213786
  H           2.93508887014803     -3.11966104688788     -3.16300719912247
  H           3.04640824999058     -2.45529364404646     -0.77778918892593
  H           0.11611344488061     -1.85557778764982      2.78631108056571
  H          -0.60752548427824     -3.04157598080086      1.67302769098198
  H          -0.87210552778150     -1.31797478847719      1.40829458275379
