73
Coordinates from ORCA-job A3R E -120.235279419340
  Ru          1.84049244265153      3.48352503684027     -0.30306473250089
  H           0.48253417535208      2.18307768145467     -0.30389427002294
  N           2.24041615949991      2.34321328566698      1.42335603546309
  C           2.85167406859424      1.12103869109824      1.23354492506205
  C           1.86755003626117      2.70336989826142      2.66209053346353
  C           3.08157436266715      0.28008277625399      2.36474607073725
  C           2.11290071991908      1.93424884843804      3.77710013903272
  C           2.74362036763122      0.69030331590467      3.61547620348066
  H           3.55211588110437     -0.67588891100914      2.19413477752967
  H           1.80439081366138      2.27780546198094      4.75026845485246
  H           2.93944192280403      0.07066638124811      4.47734989775236
  P           3.30724846389660      1.95050538723857     -1.28109550683894
  C           2.92339551239743      1.19804003749818     -2.98203142139031
  C           5.15126751257696      2.47895239072894     -1.23488585213363
  P           1.03206346156248      4.86653584945971      1.24679496497059
  C           2.23247272021830      6.28883981233906      1.61957765799390
  C          -0.61357248573257      5.80737779856811      1.42713573832176
  C           3.17499541546529      0.68974573516385     -0.05143941174676
  H           1.16999737515874      0.02339534065423     -0.12068936573687
  H           3.71676208035448     -0.24010623446708     -0.16651590270710
  C           1.05462511333025      3.96761010323354      2.83371263991318
  H           0.01899797931248      3.69212406551136      3.07343909390392
  H           1.43367729851713      4.59460845323143      3.64869531526803
  C           1.51020503466219      4.47368867396049     -1.83061651164272
  O           1.36330181226669      5.14172228626151     -2.75455935488891
  H           3.08902566244470      4.27963190453645     -0.14432200712789
  C           3.36542960273093     -0.26036516714134     -3.07117661369793
  C           1.40465220592939      1.25718455043738     -3.16539885727522
  C           3.53984790968983      2.03934340451607     -4.09876827066904
  H           2.83579075547748     -0.86154592729803     -2.33553670025653
  H           3.12279806597965     -0.64857382472016     -4.05979377812200
  H           4.43351669664953     -0.37601220809544     -2.91615515589773
  H           1.04281652101242      2.28344354624009     -3.07750762843769
  H           1.14068461851300      0.89666175947885     -4.15904987991496
  H           0.89115763679054      0.62860247596363     -2.44422318165028
  H           3.30143003739980      3.09196402525702     -3.94978012378115
  H           4.61709030777957      1.92098523886097     -4.16086107328098
  H           3.12055822078183      1.73069759499467     -5.05621215744299
  C           5.48200844627486      2.69536063150651      0.24511371874405
  C           6.08915459150010      1.39102386285612     -1.75569431008829
  C           5.37082731591008      3.79662937740586     -1.97733287349141
  H           5.45291993243617      1.75841291632379      0.79743912159171
  H           6.48205090086761      3.11480669914780      0.34199857214069
  H           4.77915338260099      3.38887272766358      0.70425892369658
  H           6.01176630086522      1.25278744935194     -2.82994101237421
  H           7.11820833527238      1.67283958656578     -1.53346223233569
  H           5.88894475207816      0.44291379374690     -1.25955171793918
  H           5.37739481570989      3.66541002057310     -3.05392870441759
  H           4.58735625260719      4.50984119357943     -1.71767850674872
  H           6.32984174400033      4.22465474303319     -1.68790271221472
  Cl         -0.57831652332564      7.19948259216571      0.34586930958312
  Cl         -1.81432102772222      4.64244602814696      0.82431462590795
  Cl         -1.10055288381017      6.29091093627265      3.05811247608849
  Cl          2.63159415315503      7.04556917992634      0.07332378878701
  Cl          1.72959697566185      7.52041953488827      2.77340562302357
  Cl          3.67448458293103      5.48220627859722      2.25650668826201
  C          -0.29173941331067      1.32875164800414     -0.19122187788844
  O           0.28454786386875      0.09583045752210     -0.53106848413610
  C          -1.41794699563400      1.61645416844050     -1.15552635535320
  C          -1.52207828565690      2.83335292089044     -1.81054564076244
  C          -2.57451415966591      3.08228671866260     -2.67246832604392
  C          -3.52932022017368      2.10583525059360     -2.89721268520573
  C          -3.42169188333286      0.88059824528222     -2.26136194864565
  C          -2.37374636152353      0.63637601873409     -1.39336793408996
  C          -0.81866255498095      1.27567631175507      1.24644492902409
  H          -0.76754585654999      3.59855316459373     -1.64793367445067
  H          -2.64341653955535      4.03706908154412     -3.17200571502175
  H          -4.35042845937826      2.29666511368174     -3.57202829228781
  H          -4.15770220663204      0.11115716615277     -2.44163357318872
  H          -2.27804714205485     -0.32249563547139     -0.90774905787214
  H          -0.01644721203133      1.04856327413540      1.94649753910428
  H          -1.55669099538439      0.47820013395641      1.30944008702474
  H          -1.29519811032810      2.21042887122103      1.52494554099623
