73
Coordinates from ORCA-job A3S E -120.233278130820
  Ru          1.66451181462105      3.54117180920913     -0.39624559907011
  H           0.18748149796680      2.38292713693716     -0.20808006523018
  N           2.09865254768681      2.56488140696765      1.41028302519400
  C           2.68551884798230      1.32179151696794      1.32457324244827
  C           1.75140307665519      3.04708061993103      2.61515179329218
  C           2.96701420938269      0.60863994032698      2.52695405544887
  C           2.03329535628446      2.39592159042440      3.79350137212745
  C           2.67210422411209      1.14847771359084      3.73951043631011
  H           3.43918080344872     -0.35812095394019      2.44200643155227
  H           1.74732305451213      2.83267771551448      4.73546032033576
  H           2.90851365732339      0.62573190597472      4.65377362260583
  P           3.05141125120257      1.87965092137235     -1.28233829432032
  C           2.61017933674818      0.98587094829537     -2.90234194021059
  C           4.91408640216364      2.34803979310860     -1.32855580606640
  P           1.00734397446800      5.10002108464549      1.03161128587717
  C           2.28038130177136      6.45055368867293      1.38889212112443
  C          -0.57565257289494      6.16414440402204      0.96300694902930
  C           2.93074497959446      0.74586231266397      0.07406938622159
  H           1.06049599593047      0.28067415169400     -0.11616511126142
  H           3.46861645217141     -0.19371733898912      0.03911033596460
  C           0.94674834849930      4.32880729542106      2.68081501464290
  H          -0.09680041312770      4.06543545546999      2.89448613054500
  H           1.30005695083625      5.00138540180542      3.46994228912295
  C           1.16452916679926      4.36360355279022     -1.97606680313479
  O           0.83660859849561      4.92648668781164     -2.92333417444306
  H           2.93383721257135      4.33250147332226     -0.43073790946719
  C           2.98349436816778     -0.49329889133020     -2.85103811953033
  C           1.09566979730951      1.10389909538918     -3.09638619030072
  C           3.25837510264394      1.68683000055703     -4.09567049846682
  H           2.43570644703495     -0.99571472199462     -2.05672463811623
  H           2.71493987602508     -0.96548523799743     -3.79546643549129
  H           4.04708209523086     -0.64051701546295     -2.69078229867522
  H           0.78282264528277      2.14987552870792     -3.05132910439605
  H           0.82143607742734      0.71399687099393     -4.07614827681477
  H           0.55523178343832      0.53053109190464     -2.34987468361951
  H           3.06252043606454      2.75760439907768     -4.05015147755591
  H           4.32914245173998      1.51858221648036     -4.14602644016203
  H           2.82435338010528      1.30307430597247     -5.01886242602766
  C           5.28431131833707      2.71109446133601      0.11300447399102
  C           5.80642311697893      1.17842648625704     -1.74251050374639
  C           5.16370890391892      3.57190696326293     -2.21021431498360
  H           5.24269611265783      1.84139682165448      0.76520688366528
  H           6.29749256630144      3.10837048238392      0.14459670821642
  H           4.61152749635772      3.47130634578782      0.50714106332627
  H           5.70432838671200      0.92460507986085     -2.79325542363914
  H           6.84801141847901      1.44822693451742     -1.56956524475982
  H           5.58700279199952      0.29728253179932     -1.14216327931352
  H           5.17758826697031      3.32409417384687     -3.26581619318786
  H           4.39166904849814      4.32299819950256     -2.03762071971607
  H           6.12804519045212      4.01215724768854     -1.96008497257952
  Cl         -0.32445873876479      7.68926751551779      0.11165800296899
  Cl         -1.63811081872920      5.16248621440307     -0.04783023817479
  Cl         -1.35243458570656      6.46360567908439      2.52099674624704
  Cl          2.77100808059185      7.19707607607274     -0.13100071176122
  Cl          1.74842456801334      7.66503190292032      2.55395083671687
  Cl          3.66448558111075      5.57791447974290      2.06351294815696
  C          -0.50446548964562      1.46457225916751      0.03965993131481
  O           0.10452960482255      0.28256852839968     -0.37774569879895
  C          -0.80889721217966      1.42952162325441      1.52941210929446
  C          -1.61792841309607      2.38695489741924      2.13169014363621
  C          -1.91934524760195      2.31204158964613      3.48035880242526
  C          -1.41907268982515      1.27712171609697      4.25178374962744
  C          -0.63172206638773      0.30834802729048      3.65759165898423
  C          -0.33598971091957      0.37948695677792      2.30829115825807
  C          -1.78669665384849      1.62185432605616     -0.77861748361876
  H          -2.02402303198161      3.19982955748150      1.55039800047642
  H          -2.55058631187446      3.06677699553729      3.92725624341571
  H          -1.65233195367771      1.22181092525389      5.30445640613562
  H          -0.24620778198416     -0.51278821290583      4.24317558982708
  H           0.25649334755724     -0.40130196571610      1.85655892245527
  H          -2.43457494884472      0.77448281131910     -0.56470954892988
  H          -1.54889804776261      1.61784528672212     -1.83907447016001
  H          -2.30949263260392      2.54089920625216     -0.53841309525197
