73
Coordinates from ORCA-job TSA2S_3S E -120.226184570040
  Ru         -1.15663587593285      0.41556605754949     -0.53764445259181
  H          -0.78022240108339     -1.38362576714583     -0.41661928478006
  N          -0.09426260918479      0.35327176998708      1.28442861671632
  C           1.25939299374185      0.25975201640467      1.20962563687877
  C          -0.69317198550399      0.33766224731594      2.48125320141437
  C           2.02695892808468      0.26074384435239      2.39020707578836
  C           0.02076754093625      0.35058413577464      3.66576248373532
  C           1.41156865486915      0.33618007101080      3.61315742333310
  H           3.10139546156464      0.20366984153724      2.31058676606272
  H          -0.50086348780065      0.35591769895268      4.60824775510717
  H           1.99006502373244      0.35930252123189      4.52369374534507
  P           0.96215701124881      0.85883987443836     -1.41654251402301
  C           1.54889032258387      0.08500767159236     -3.04553678452977
  C           1.53842640085508      2.68211611598949     -1.33916495369742
  P          -2.85412818951720      0.54401339452349      0.87007703744810
  C          -3.50610367676122      2.29572451925598      1.19679806258094
  C          -4.51720687744505     -0.39731653064769      0.83223035428653
  C           1.86856660854559      0.04583657808748     -0.08146597869335
  H           1.57095718898835     -1.27260090807020     -0.33489804890003
  H           2.95237763096668      0.14299777901979     -0.09765536415911
  C          -2.19659369325660      0.20381218030257      2.54035285594823
  H          -2.42521373438401     -0.84135818044602      2.78614692052726
  H          -2.64528967072929      0.84391529375662      3.30747213503096
  C          -2.12753133307930      0.38764244724218     -2.11306402396100
  O          -2.79042269757993      0.40615579646926     -3.05163065351761
  H          -1.25631281409106      1.92023449865717     -0.53477936429943
  C           3.01354875574685     -0.34320449186857     -2.98875150344969
  C           0.69024992546418     -1.16039189840739     -3.27474480544835
  C           1.28305935163636      1.03557137850060     -4.21307169167518
  H           3.14734556508562     -1.12698177545805     -2.24725331312010
  H           3.30314570162314     -0.74625163792173     -3.95852255555210
  H           3.67881817460924      0.48272052830363     -2.75728662941067
  H          -0.37059719069475     -0.90276827467978     -3.29648687909753
  H           0.94814818804697     -1.61325464558630     -4.23119579392248
  H           0.87351734953531     -1.89650248063898     -2.49570380725649
  H           0.26249000621346      1.41459332221487     -4.16093675856791
  H           1.97682708778742      1.87050114220955     -4.23759733590903
  H           1.39267581395912      0.49208620334192     -5.15117857202184
  C           1.39206496654169      3.12743718754195      0.11902847738471
  C           3.00393982293755      2.86569653328773     -1.73036959950062
  C           0.62886305678145      3.55994039628465     -2.19975602325781
  H           2.10648489807407      2.62310202628419      0.76642898676302
  H           1.57309856614327      4.19874693853822      0.19367447851312
  H           0.38574347887054      2.93348076721158      0.48763574535154
  H           3.17772750657886      2.68055352665179     -2.78581754968031
  H           3.29840857148714      3.89454014534334     -1.52437242856842
  H           3.64860040889605      2.21277852155914     -1.14464905098383
  H           0.86220989488510      3.48162753872848     -3.25589705580281
  H          -0.41399149350555      3.27767434674432     -2.05060753947068
  H           0.74269245690879      4.60361678946110     -1.91029632489667
  Cl         -5.77552615301273      0.49946020104761     -0.02280586049018
  Cl         -4.12107570933688     -1.81582057218155     -0.15666814959732
  Cl         -5.11830295313139     -0.92220966098220      2.40827601534433
  Cl         -3.95602230248799      3.03567132046828     -0.33751182779397
  Cl         -4.82991610797400      2.38209054993631      2.36177111377451
  Cl         -2.11698224450526      3.17113001510784      1.86072806542735
  C          -0.18117862698683     -2.47961545517208     -0.15798711958622
  O           1.08105817075095     -2.41759426726004     -0.58696749251851
  C          -0.29438600444694     -2.70087629362706      1.34376270868001
  C          -1.50896794549714     -2.92878540612702      1.97930197123094
  C          -1.55748670115864     -3.18575972429714      3.33863220342609
  C          -0.39255927656465     -3.21848989793904      4.08635924426691
  C           0.82294437665721     -3.01408138091246      3.45890656743351
  C           0.87087796604224     -2.76727031015731      2.09942491873918
  C          -0.97422084013767     -3.54087780758780     -0.92894460073508
  H          -2.42945382855083     -2.91238831434551      1.41647938918680
  H          -2.51172135009017     -3.36588541023477      3.81401912438849
  H          -0.43359403206352     -3.41603107934725      5.14730203198037
  H           1.74081340320215     -3.05437553568168      4.02702027326128
  H           1.82189761080372     -2.64340820004139      1.60336714481866
  H          -0.54528516283162     -4.51417083168801     -0.69619097201602
  H          -0.87744314375748     -3.36749529063074     -1.99769403301144
  H          -2.02610472830251     -3.54257370313508     -0.66389183368018
