24
Coordinates from ORCA-job NEB E -32.310038175520
  C          -0.62948839647285     -1.15810292413516     -0.05310409490412
  C          -1.12795236661708     -0.05797151717994     -0.75546379565216
  H          -1.10872358172656     -1.42007309130906      0.87817765341102
  H          -0.26700327410931     -2.00602458099502     -0.61665149045066
  C          -0.90455597057681      0.04921359619644     -2.25112111610211
  C           0.96992778382356     -0.36636113328557      0.73437224825321
  C           0.39014321088430      0.66207884211576      1.49619832131618
  C          -0.27526062360442      1.69165299010912      0.80712133705538
  O          -1.54250657762038      0.96874979241977     -0.09248060774122
  O           1.66052677152413     -1.42024448530508      1.26021317586840
  H           1.46814350929065     -0.08345449138097     -0.18927823606597
  H           0.04543845391856      0.42813558293465      2.49291803794401
  H           0.24233574660842      2.15036303892641     -0.02549873537230
  H          -0.83479145673202      2.40010508984038      1.40192309154521
  C          -0.39561726730635      1.41856517751382     -2.69278985119672
  H          -1.86767483247254     -0.13863527667641     -2.73696029077578
  H          -0.21775748562456     -0.73666174679914     -2.56968437174951
  H          -1.03542965560724      2.19926766147023     -2.28837114813629
  H          -0.40122010183677      1.49095338663371     -3.77781542151012
  H           0.62269097344336      1.58286826828921     -2.34589356940533
  C           1.35137134883141     -1.82253240162125      2.57618910860108
  H           1.90959029265733     -2.74194029611153      2.74438803984858
  H           0.28255735705698     -2.02089489051736      2.69849961128396
  H           1.66525614226819     -1.06905659113299      3.30511210393527
