24
Coordinates from ORCA-job NEB_reactant E -32.347451546880
  C           3.02598155365101      0.91111451874783     -0.54398071119748
  C           2.05959141517192      1.80301276334013     -0.37054185217003
  H           3.88567015549823      0.83359087797882      0.09433766933248
  H           2.96531675373821      0.20920236963078     -1.35463821211762
  C           0.86362721780243      1.90885483949650     -1.27996376613821
  C           4.25918236430748      1.17438895246126      2.85305745852194
  C           3.13329896812232      1.78655099547201      2.51093771036604
  C           3.07823050418946      2.89538184866474      1.50142958879688
  O           2.00110437472222      2.76479284681188      0.59575008232392
  O           4.44143898096635      0.18459290641191      3.75691277004070
  H           5.21152382028417      1.44810253201799      2.41656837788252
  H           2.17942310024577      1.52176435598335      2.93956710854804
  H           4.02999460717157      2.97678918156076      0.96117953757327
  H           2.87977271340209      3.84807153177518      2.00767495353805
  C           1.06055913466452      3.02614045336161     -2.30458739261539
  H          -0.01538405527880      2.13020855072703     -0.67229402601376
  H           0.70968095885659      0.95885472470745     -1.79135767860382
  H           1.21658433877642      3.97464393415273     -1.79700101411655
  H           0.18542642475917      3.11297055234147     -2.94431541601283
  H           1.92819758136505      2.81890853323265     -2.92693455676853
  C           3.30044041479766     -0.30507902643116      4.42154903917855
  H           3.65355870736728     -1.09073261635234      5.08691767497340
  H           2.57856215002209     -0.72170741251784      3.71230877562484
  H           2.81611781539679      0.48198178642527      5.00802387905358
