17
Coordinates from ORCA-job NEB E -37.760616661830
  C           0.92986740274404      0.50248132976040      0.79616934868806
  C          -0.29412083481972      0.03357979051293      1.34391249722721
  Cl          1.17032605240221      2.23013009729699      0.71334774959208
  H           1.83025033387584     -0.00602393577323      1.13921734353556
  N          -0.28605645853837     -1.34060516119462      1.81187711338907
  C           0.69179728246836     -0.03242499235212     -0.95767646800446
  C          -0.56324762321800      0.51435375990064     -1.30925265298747
  C          -1.71954439239540      0.06858949802965     -0.58964466177433
  O          -1.42549150535875      0.48067593058336      0.89896858496660
  C           1.83796698650025      0.46444627423114     -1.65980941868013
  H           0.74898290401842     -1.11151825429886     -0.81311213510466
  H          -0.58339216482937      1.48720579234204     -1.77896717583047
  H          -1.86958839870739     -1.00914956011242     -0.51394128441736
  H          -2.64368005378970      0.58933094015560     -0.81515253209587
  O           0.78261166055035     -1.80868690652868      2.15997003160635
  O          -1.34801238972179     -1.92589434294584      1.80719774521672
  N           2.74133119881902      0.86350974039302     -2.23310408532689
