25
Coordinates from ORCA-job NEB_product E -36.430392823670
  C           2.53047347641828      1.20551534360648      0.18283424802044
  C           1.29304571695060      1.00246635135221     -0.68051062213619
  C           2.43695859147816      0.25997260142000      1.39005545830767
  H           3.43848779512035      0.97880448897383     -0.38892889859577
  O           1.50987130053049      0.77535226775622     -1.98997663865880
  C           2.53454978094405      2.71079080707158      0.57850485303116
  C           2.30607095374685      3.53670848160164     -0.66117371506789
  C           1.27945624193041      4.34939760840711     -0.81985733760300
  O           0.17796208774016      1.03756023862337     -0.24966980446090
  O           3.67697449871887      3.09858886669493      1.31853935071283
  H           1.70490601958810      2.87190543044004      1.27505191617367
  H           3.03806551917661      3.41952246462619     -1.45102059765024
  H           1.13291045081440      4.90877314252946     -1.72826038615919
  H           0.53618790185884      4.47568208871674     -0.05135786074695
  C           3.71703085368653      0.19943578596045      2.21279051739282
  H           2.19928766153757     -0.74136019594423      1.01898822986787
  H           1.60410016500526      0.58216838518362      2.01572862849149
  H           4.55229299320864     -0.14052615266886      1.60267858087074
  H           3.59189523656938     -0.49869945397643      3.03668761130609
  H           3.95567720647371      1.17764200838470      2.61810007196759
  H           2.44745511980267      0.77087361280896     -2.22312341122634
  C           4.87907936108747      3.27569690923647      0.60924880739705
  H           5.64323470762887      3.44313506482057      1.36668634734840
  H           4.83689548066637      4.14840306934555     -0.05109081843829
  H           5.15393087931736      2.39209078502940      0.02327546985573
