25
Coordinates from ORCA-job NEB_reactant E -36.420512153720
  C           1.84146469278578     -0.09882499866173      0.20509452283379
  C           1.78729925208181      1.04131858673901     -0.48079561128644
  C           1.30594516127419     -0.26582813096564      1.59395506210954
  H           2.31090711307650     -0.96038238730472     -0.24659031182336
  O           2.30505191795217      1.19312677102780     -1.73881774111795
  C           3.65829138667333      3.42629094997979      0.37282311597409
  C           2.78959357697855      3.90265217427204     -0.50833272916895
  C           1.39240572206097      3.36765885299085     -0.65187468463937
  O           1.17151438773003      2.14057648007411      0.01689845743050
  O           4.93816882206318      3.81317806580110      0.59145388852367
  H           3.39874498334881      2.62066779232878      1.04581621620198
  H           3.02955285627951      4.70707397127178     -1.18535813691571
  H           1.14891874073873      3.26880622640623     -1.71735769215604
  H           0.67204465343349      4.05627818408681     -0.19510302725587
  C           2.41078198411211     -0.66325149660725      2.57288827202256
  H           0.53339267672607     -1.04069669798377      1.59829928539935
  H           0.84870771519561      0.67174023538864      1.90877954359528
  H           2.87016748170107     -1.60157866673403      2.26876502959619
  H           2.00552444180422     -0.78667551739052      3.57451851537254
  H           3.18331204843284      0.10161123845453      2.60442779596222
  H           2.71290643115681      0.36490604726502     -2.01086692559571
  C           5.44321678274105      4.85960213552343     -0.20256194049148
  H           6.47180148432178      5.01323937040531      0.11907286104115
  H           4.87192006939266      5.78163267115950     -0.05441179655204
  H           5.42716561793875      4.59427814247290     -1.26452196905995
