20
Coordinates from ORCA-job NEB_reactant E -40.172952316240
  C           1.30337921494505     -0.02567415550472      0.23618107229743
  C           0.81087535710949     -1.18838282167494      0.73683866838166
  C           2.46279577228930      0.07082855585310     -0.62396605610112
  H           0.78896543375619      0.88189940471873      0.50091200946641
  O           1.31855203499217     -2.40463289310419      0.51140991608484
  C          -0.06666447841339     -2.47299107456122      4.50890959019104
  C           0.15573491447473     -2.79631043008716      3.23394373365992
  C          -0.73533919608616     -2.35039355204243      2.12358710872020
  O          -0.26737731187284     -1.13337330153689      1.49886820568304
  N           0.78148606700133     -2.74375228283752      5.55095415870847
  H          -0.94729256324120     -1.90815457036474      4.78504682147562
  H           1.04308423263484     -3.34400270484909      2.95440629429688
  H          -1.72260017230325     -2.07320493796707      2.49621160500821
  H          -0.82806982475754     -3.12506865130021      1.35659831521014
  Br          2.86468407131314      1.89129375106697     -1.12073393604472
  Br          4.14387149721510     -0.69969543883541      0.22279821072473
  Br          2.26221825253096     -0.98875110275601     -2.35392494569133
  H           2.09014729833969     -2.38787432104851     -0.07191143469151
  H           1.52498763238760     -3.39684724276100      5.36001091602614
  H           0.37816176768480     -2.81891223040769      6.46935974659398
