20
Coordinates from ORCA-job NEB_product E -40.171712358270
  C           1.70509617971080     -0.93701783075864      1.90064169988874
  C           2.73165376108798     -2.08441348582822      1.96703077554280
  C           1.47565771251145     -0.30469825136965      0.54879159155030
  H           2.11648657378521     -0.15340909539704      2.55331195701202
  O           2.87529724023576     -2.88871788596436      0.92020509093580
  C           0.40297167378514     -1.41254245632862      2.61245417841488
  C           0.03026960369578     -2.83620670655955      2.28403930191650
  C          -1.14690852819551     -3.19354795618881      1.80399368783686
  O           3.35276041759218     -2.25971837918659      2.97426511896388
  N           0.62360221147269     -1.21176827177197      4.03497279890649
  H          -0.42207148501011     -0.74772760367317      2.32126381545806
  H           0.76549307210010     -3.58309978303980      2.55628630019854
  H          -1.89900790740997     -2.46625812775664      1.54431223865530
  H          -1.40314369885161     -4.22537106108388      1.63966727296573
  Br          0.44919975594362      1.35575628310780      0.73269590628115
  Br          3.19892951158937      0.15514116535346     -0.29035038802416
  Br          0.48300148114084     -1.43896032951297     -0.71474137067387
  H           2.28019749431221     -2.73271159224971      0.17011788498524
  H           1.42003049735891     -1.75739712571028      4.35146442244829
  H          -0.19081556685485     -1.49653150608137      4.56607771673747
