23
Coordinates from ORCA-job NEB E -53.593726559530
  C           0.28531238707314     -0.86455196472312      0.51050382814979
  C          -1.07422061996181     -0.64129273882266      0.78884997449078
  C           1.29820425324240     -0.42949739046336      1.54968143191545
  H           0.54489198608828     -1.82341146556567      0.06942809411063
  C          -2.12779850639561     -1.52307725077016      0.11780877015494
  C           0.45026218093931      0.39114457256767     -0.93756603244777
  C           0.02416603001020      1.59911429292702     -0.37152440177245
  C          -1.31941957249654      1.67926886836033      0.10034033984499
  O          -1.44399475129795      0.52653281034383      1.22359519000949
  C           1.86962315525732      0.33541552501264     -1.45609821054651
  H          -0.20915000930435     -0.11817483024863     -1.63465267033914
  H           0.76499098192089      2.26006535285307      0.05470466740214
  H          -2.09743757286469      1.38519408386594     -0.59864288041126
  H          -1.58095691290456      2.57334614399290      0.65318145665672
  F           2.54011351453274     -0.89843010382730      1.23081744329576
  H           1.03769725602473     -0.87615292474561      2.51697514451392
  H           1.37031438787928      0.65579587184255      1.66003985481276
  F          -3.20520350654821     -0.79396913098713     -0.24737967148815
  F          -1.64453377063866     -2.08860142348530     -1.01979779746170
  H          -2.47884450347684     -2.33926125997445      0.77022251751063
  F           2.74236281621004      1.00746707722899     -0.70149931032960
  F           2.32739798757426     -0.91129140505295     -1.59705057613877
  F           1.92622278913665      0.89436728967146     -2.68193716193266
