23
Coordinates from ORCA-job NEB_product E -53.632986236580
  C           2.09323303020152      0.53738597578203     -1.95758260655608
  C           0.79686640039423     -0.12197303156729     -2.40438381479435
  C           1.90556714768182      0.94552036761413     -0.48687031259584
  H           2.93901026584203     -0.15332463440072     -2.02069950831915
  C           0.85510793907928     -1.64917195092113     -2.62619397225237
  C           2.36205570846671      1.77643458365485     -2.84024824042210
  C           3.47405971275890      2.63530601935644     -2.30417557292417
  C           3.31988423163634      3.90750918934242     -1.99388945978951
  O          -0.23449585612394      0.47366930392834     -2.51678522702446
  C           2.73837693057743      1.31189379720708     -4.24709681064764
  H           1.43745348332484      2.35793995692237     -2.93276660918195
  H           4.42721278432431      2.13941986390536     -2.19133944787661
  H           2.37452014914870      4.41334470241426     -2.10339729021042
  H           4.13830536586644      4.49492644146673     -1.61822782918798
  F           3.11494054916831      1.20641350350652      0.08958205381250
  H           1.45336880619102      0.13232441518401      0.09117223604938
  H           1.29823133328559      1.85110896999851     -0.40164832024956
  F           0.01332603579061     -2.02455266294790     -3.60190028346957
  F           2.09161947532360     -2.06622943122086     -2.97189862237511
  H           0.56546592205083     -2.17838394807964     -1.69920900247713
  F           3.89275758007477      0.63399404391788     -4.26957606557682
  F           1.81168062579150      0.50109357344758     -4.78155072829705
  F           2.87615237914514      2.34335095148902     -5.08721456563402
