23
Coordinates from ORCA-job NEB_reactant E -53.621375352110
  C           1.52390893468619      0.00546974650277     -0.15297023660863
  C           1.26574678933418      0.27547822801463     -1.43335855233627
  C           1.90189265022504      1.02720835110382      0.87529081884939
  H           1.48465891486294     -1.01961399068448      0.17903498690762
  C           0.86237885796568     -0.84917335375731     -2.37816404734475
  C           2.64658185896256      1.74505065536636     -4.44877211422471
  C           3.14654784042876      2.28727212797177     -3.35121083380846
  C           2.48092343300302      2.25549055462328     -2.00979735188235
  O           1.28215500948194      1.49145476177682     -2.03180133069979
  C           3.33879490576610      1.81268030655292     -5.77088166087436
  H           1.69814749369139      1.23090096046601     -4.47506356967213
  H           4.09632911810939      2.80436246136546     -3.36656006961576
  H           2.21053557002608      3.28058342481827     -1.72708774830896
  H           3.19358874210660      1.86834745117288     -1.27519875439576
  F           3.27502320949150      1.14543684227484      0.98029966911795
  H           1.54407200619441      0.72931423969627      1.86489323754886
  H           1.52164307308954      2.02066554857848      0.61773911311859
  F           0.03929744120726     -0.39928220391394     -3.34592698618698
  F           1.96537341305889     -1.33108119193971     -3.01058184430052
  H           0.37304787154568     -1.69220216788417     -1.86891289873443
  F           4.53992985302483      2.40940378596614     -5.71531937687452
  F           3.54179126945671      0.59652679862388     -6.30185149115549
  F           2.61823174428132      2.50090666330500     -6.67629895851852
