21
Coordinates from ORCA-job NEB E -33.194899990830
  C           0.67676031296776      0.83868075879579      0.86900252766836
  C          -0.68051985888718      0.48500438613556      0.81359835863742
  Cl          1.11452234266207      2.53948447841478      0.81443362243093
  H           1.32633907305557      0.31204807881426      1.55781818831157
  C          -1.14310769819982     -0.78489132182493      1.50335497921157
  C           1.28545457393824      0.28138997434998     -0.92274483519938
  C           0.39203028924679      1.01034395219424     -1.72707231777171
  C          -0.97535875369120      0.72346094238065     -1.66782317313007
  O          -1.45433125086761      1.07158720755037     -0.02118285925495
  O           2.61381254103529      0.54758143537370     -0.91355174588088
  H           1.12967818707232     -0.78545096546193     -0.81108207445613
  H           0.69262128035177      2.00841594657437     -2.01835734495906
  H          -1.28129304641567     -0.31466118729556     -1.66505585078029
  H          -1.64970599381040      1.37515386785989     -2.20323974295701
  C          -0.52618759627941     -2.07414277894536      0.95937260432691
  H          -2.22802542905552     -0.82883596286298      1.39419240202624
  H          -0.90989309047384     -0.70206887818996      2.56720200915822
  H          -0.75439031621339     -2.20030014588277     -0.09620017515530
  H          -0.93546150135654     -2.92627782913004      1.49717884464762
  H           0.55301485782000     -2.07627918531424      1.08970686687599
  H           2.75404107710081      1.49975722646419     -1.01955028375006
