21
Coordinates from ORCA-job NEB_reactant E -33.231872125950
  C           1.95839329036483     -0.31546493218890     -0.03511220325901
  C           1.44737767793956     -1.33427626132272     -0.72416928170524
  Cl          2.48445154124283      1.23646734402517     -0.61158604885157
  H           2.08445882383060     -0.40354061093591      1.03030866223829
  C           1.07506968232459     -2.59841183144744      0.01803223609409
  C           3.74661876744297     -1.53962355245490     -4.11066183819288
  C           3.19519311514023     -0.76903441525236     -3.18328839343818
  C           1.71415168677183     -0.61314692244645     -3.03036484904723
  O           1.18059555352301     -1.48936322706260     -2.03866626787636
  O           5.06974722104370     -1.74360614340947     -4.28670301496828
  H           3.16444919544904     -2.07950036707182     -4.84379855335318
  H           3.81423050128406     -0.25462521334008     -2.46095774795821
  H           1.20414749019028     -0.92263063522411     -3.94601322148532
  H           1.45184472796953      0.42404634327718     -2.80570229720139
  C           2.19806048287988     -3.62856783656006     -0.09757278872072
  H           0.16990217865938     -2.99837606323426     -0.43989139503413
  H           0.87417816102600     -2.37700545456524      1.06509218558845
  H           2.40646210145775     -3.83760426635072     -1.14361537241194
  H           1.91137799059027     -4.55538816103541      0.39273510059663
  H           3.10572180137140     -3.25348954141653      0.36917035127149
  H           5.56896800949827     -1.25205825198336     -3.62133526228531
