21
Coordinates from ORCA-job NEB_product E -33.231619646050
  C           3.04477834613558     -0.93777759740831     -0.92648825945275
  C           1.57580114120715     -1.21709469123959     -0.64438732151161
  Cl          3.39282986816215      0.75625033077949     -0.44592707138345
  H           3.70663915234368     -1.56357599228655     -0.32515103464682
  C           1.30885719115724     -2.46000303005235      0.17202718876493
  C           3.39469686489518     -1.11954401485409     -2.42662410924454
  C           2.55471390196983     -0.22215655427049     -3.29123726915822
  C           1.62107109761296     -0.65909506889875     -4.11313184888385
  O           0.70285042140588     -0.49968013991211     -1.05340620558514
  O           4.76894127052372     -0.92447915052256     -2.62304244089546
  H           3.20909913962888     -2.16788050686079     -2.68691804445752
  H           2.77034879870297      0.83336489558524     -3.20327293818010
  H           1.39416018081121     -1.70805026672153     -4.21132618327807
  H           1.03860519566056      0.01490147689362     -4.71617944694544
  C           1.72856102590596     -3.72807189701889     -0.57228433414589
  H           0.24070881317937     -2.49751858773124      0.39107542413685
  H           1.85889749351290     -2.38587640741125      1.11268052702409
  H           1.20352150718315     -3.79815365865123     -1.52172300347096
  H           1.47630037873652     -4.60125336609975      0.02397755164506
  H           2.79853491245646     -3.74168599236936     -0.76304495304537
  H           4.98078329880864     -0.01231978094951     -2.38071622728575
