22
Coordinates from ORCA-job R E -43.328611186850
  C          -1.38261273926658     -0.21011843506266     -2.87739653922793
  C          -0.27943210258281     -2.87059296530312     -1.99353265444940
  C          -1.49712515289012     -2.40075937224208     -1.74077681038624
  C          -1.96189798321160     -1.05747727716184     -2.02597394521861
  C          -0.86337066133099      1.68296968339224      0.52144379460171
  C          -0.14343738265092      0.59744460052177      0.31334499395656
  H          -2.22814950621133     -3.03653022038621     -1.25858245355525
  H          -2.86079106650492     -0.75882122237169     -1.50074974016881
  C          -1.85030400730482      1.14780588468581     -3.19155979233653
  H          -0.00991407034316     -3.88121490853035     -1.74048919611083
  H          -0.50103762388347     -0.49828491765861     -3.43463245047624
  H           0.49487776701985     -2.26478008192175     -2.43079622278455
  H          -1.86479561723137      1.62971551180173      0.91177666336362
  H          -0.51147272887033     -0.39636316217474      0.52466382975733
  H          -0.48236391044147      2.66791771567267      0.30621233134053
  C           1.25292167666871      0.63648932782861     -0.22516924353150
  Br         -3.30376515431234      1.79633901756203     -2.08462116728362
  Br         -0.37356529165839      2.44122640032464     -3.01711333511449
  Br         -2.46400849849440      1.22181398587832     -5.08197631517509
  F           2.11447351978387      0.02269228859896      0.62481154665544
  F           1.33847665897390     -0.06099877976429     -1.39350131310009
  H           1.62536387474272      1.65348692631056     -0.41830198075601
