19
Coordinates from ORCA-job NEB_reactant E -33.644997613260
  C           1.38628696465622      0.13645440887277     -0.01414126111676
  C           1.53571567381152     -0.66661287256353     -1.07084296715461
  N           1.15454796375651      1.49909978816341     -0.09244591811023
  H           1.51539368821482     -0.26518774074472      0.97863205842552
  C           1.83325466084174     -2.13982175727511     -0.96947134130297
  C           3.96938614077221     -0.98523561867453     -4.26128777832673
  C           3.68277473373549     -0.39741094570562     -3.11239211103792
  C           2.47939578121218      0.48263706677216     -2.93230022012420
  O           1.36667543701237     -0.21484518492357     -2.37819742530722
  Cl          5.31983324447957     -2.02737232726431     -4.46657226114633
  H           3.38458875798470     -0.85143545981028     -5.15848361418554
  H           4.29458507555521     -0.56419340275972     -2.23752902915592
  H           2.11901107480178      0.84369601005778     -3.89823764271396
  H           2.74538119744956      1.33383858109945     -2.29269138630033
  H           0.74902223257835      1.78769751337752     -0.97239167083154
  H           0.68089971445086      1.89361963275969      0.70514244902590
  F           1.86358467009373     -2.55948475643703      0.33525706773116
  H           2.80796258172232     -2.38696140804919     -1.41005311157440
  H           1.05460040687085     -2.71888152689517     -1.48099383679391
