17
Coordinates from ORCA-job NEB E -29.433034728150
  C           0.73633103461501     -0.10618450778483      0.80508977709151
  C          -0.69592486892673      0.07110093343572      0.76755616726498
  F           1.42724042622032      1.07402061010795      1.00712731112266
  H           1.07263745983811     -0.80651321204600      1.57216211807929
  C          -1.62752636917872     -0.87324773142610      1.44054801468597
  C           1.15014941658752     -0.60161747305882     -0.66678283292848
  C           0.73305923867828      0.42393139404804     -1.57031847744168
  C          -0.40860560250092      1.30898733767034     -1.20985136028350
  O          -1.22958939748628      0.89069893235408     -0.14989738700385
  I           3.36289019705989     -1.03871317184733     -0.77066622968942
  H           0.74784726592167     -1.60451917242011     -0.77027017432191
  H           1.45220755335033      0.89075451874541     -2.22234480791226
  H          -1.10443650337627      1.40420790733779     -2.05190564712786
  H          -0.02280272648686      2.31708464238194     -0.99971160350339
  H          -1.48647179247240     -1.88995091966939      1.06188415827079
  H          -2.65077531946665     -0.56783392522520      1.24199855237469
  H          -1.45623001237631     -0.89220616260349      2.51538242132245
