17
Coordinates from ORCA-job NEB_product E -29.485321765870
  C           2.85674048463629     -1.68798093319130     -1.04117465954076
  C           1.41509293728252     -1.23098001184939     -0.74924040005621
  F           3.73993956404421     -0.79093843039932     -0.49789694717225
  H           3.06453546667689     -2.65682224476059     -0.57020428776142
  C           0.46163246015181     -2.36303042096251     -0.49150396029489
  C           3.03121616487628     -1.74672591287599     -2.55666370360316
  C           2.93398714475536     -0.40439462537532     -3.18377378808806
  C           2.15155954605463     -0.14098154116285     -4.21453943568734
  O           1.11032075941667     -0.07238261455252     -0.74570273612999
  I           4.98280151647409     -2.63146211552852     -3.03486174377913
  H           2.30598055343852     -2.44220102017119     -2.98035493459249
  H           3.55186266624114      0.36052332943083     -2.73560828943973
  H           1.53258783533087     -0.89689087923149     -4.67133883427965
  H           2.09782873047736      0.84477822422468     -4.64066117283424
  H           0.61906098869974     -3.17654444511020     -1.19557502317327
  H          -0.56325940309259     -2.00684840750826     -0.54903384560700
  H           0.64361258453621     -2.74561795097605      0.51233376203959
