18
Coordinates from ORCA-job NEB_product E -30.774517551210
  C           1.59013932763930     -1.34442327494327     -0.40480174933820
  C           2.77059946573337     -1.26975140418313      0.56208350066247
  O           2.01339999279775     -0.87241000214027     -1.65131806586616
  H           0.76829873064409     -0.72918321047315     -0.00092443041572
  C           2.36988408068113     -1.64914917444867      1.90983013102748
  C           1.14117097561787     -2.83479924903209     -0.43117603425115
  C           0.17401692615113     -3.07789748308331     -1.56078877680314
  C          -1.12565929274097     -3.24226785173307     -1.39917824083208
  O           3.88362116527338     -0.93175643081275      0.27892224250830
  N           2.35697205337619     -3.62936198507665     -0.50353683562552
  H           0.65146271728109     -3.05754881406402      0.52465856330412
  H           0.62123606933197     -3.13565572792487     -2.54621580946213
  H          -1.58271590994377     -3.20178071522480     -0.42406836832174
  H          -1.78499158068077     -3.42677617118854     -2.23016899075706
  H           1.26347709313171     -0.85136677263468     -2.25582550694012
  N           2.03608405397246     -1.92326731409161      2.96947159477798
  H           2.92041363022290     -3.33769515267270     -1.29631473217899
  H           2.14469050151114     -4.61530926627242     -0.60384849148835
