20
Coordinates from ORCA-job NEB_reactant E -29.444382101450
  C           2.07462261048383      0.30971375505574     -0.32671144731222
  C           1.44082506038267      1.26491850434639     -1.00622570504507
  O           2.61735234218055      0.43067699490563      0.94295746127028
  H           2.15955054742373     -0.66964134310396     -0.77778091570955
  C           0.84122610038731      0.97675032697678     -2.35425391900300
  C           3.96725507913369      3.23738649142321     -0.74293682461138
  C           3.29454542514647      3.25422945006199      0.40204466617465
  C           1.80661101335014      3.08575318740758      0.50964725582340
  O           1.19658602998264      2.56066051460756     -0.65169897661720
  N           5.32595936582501      3.48683644878579     -0.87386839083468
  H           3.45462731473557      3.09133824546844     -1.68329767568622
  H           3.80571226554362      3.40661864983815      1.34157030897734
  H           1.32420101426824      4.06252738525801      0.64649645145420
  H           1.57339765378130      2.46192097557449      1.38009258503936
  H           3.28508085407641     -0.25033846787499      1.06204060467223
  H           1.28547202965867      1.63081567804684     -3.10244985355494
  H          -0.22677883235738      1.18368355148921     -2.32855950533814
  H           0.99961698130880     -0.05733253003008     -2.64102793747612
  H           5.83919433613152      3.44105632072637     -0.00522885290704
  H           5.78254280855720      2.99282586103685     -1.62510932931592
