22
Coordinates from ORCA-job NEB_product E -45.437016839080
  C           2.63340146264341      0.66488845661377      0.67617644781108
  C           1.27622144720153      1.27622187062554      0.54130736448571
  C           2.48626737942473     -0.85922429817654      0.71816578464728
  H           3.28630195692941      0.96202953360347     -0.14876464185043
  C           1.25170225350413      2.58083170355147     -0.31364330270976
  C           3.29463478261835      1.25175916832098      1.98299520255588
  C           2.76675840682128      0.55030602440568      3.20597260207765
  C           1.82995608745140      1.04925401376580      3.99015006018128
  O           0.26253367536533      0.86711672186827      1.03192229560286
  N           4.72708301424134      1.17888454807165      1.80432507110730
  H           3.03359884850616      2.31506745349001      2.03982239008671
  H           3.22824230395554     -0.40340904953204      3.42660238084622
  H           1.36555157652493      2.00028288149670      3.78685413984923
  H           1.48438848770853      0.52727025661270      4.86567172326936
  F           3.68059724757240     -1.46517841799727      1.00152888626029
  H           2.16297953026934     -1.23878248917088     -0.25626364594769
  H           1.77511562640617     -1.15928350765239      1.49325897235503
  F           0.02589929504250      3.08317374575232     -0.42686196684075
  F           2.03318383239281      3.54135176481469      0.20058409148280
  F           1.70465978916399      2.33492695553734     -1.55345281196447
  H           5.04816999998797      0.21731079935420      1.81211679848972
  H           5.20945299626875      1.69170186464453      2.53103215820472
