18
Coordinates from ORCA-job NEB_reactant E -42.982636639030
  C           1.97409405372943      0.41279465837699     -0.17151134041208
  C           1.53546087019177      0.34396288578452     -1.44097514167684
  N           1.63112697734240      1.38719765000052      0.80641529517234
  H           2.66369329120398     -0.34438301853805      0.17822844040089
  N           1.96960481489694     -0.87463354509482     -2.21515207397707
  C           2.11669193915052      4.08616887759266     -0.78723376057926
  C           1.91382580324850      3.23906447967249     -1.78031142959713
  C           0.62222696027979      2.50186432957697     -1.97467704904599
  O           0.84247620246202      1.11571562654517     -2.23949921062394
  I           3.90296236738871      5.15067541021445     -0.54527519394741
  H           1.37422580285259      4.30250261813282     -0.03611858416263
  H           2.67825109480728      3.03574698693020     -2.51785979815405
  H           0.11487566585756      2.85367115039414     -2.87790233907350
  H          -0.03498015814993      2.62800861086677     -1.10632810670111
  O           2.46033468098070      1.62996445371338      1.65122064320677
  O           0.52531601958665      1.89336414285332      0.74699165532139
  O           1.74928473239930     -0.85415576425433     -3.39193324463162
  O           2.49342888177177     -1.75662955276721     -1.58827876151876
