18
Coordinates from ORCA-job NEB_product E -42.978907756860
  C           2.13132823374333      1.38151328361657     -0.26042961056868
  C           1.23925704191642      0.39735691079179     -0.96805952815610
  N           1.98522323659483      1.13173907125253      1.22663735764082
  H           3.17792369947077      1.19483837424534     -0.53357563374174
  N           1.94028977611335     -0.29319584028927     -2.18127399321686
  C           1.66441075685883      2.78355391473401     -0.65438036676900
  C           1.66284442301085      2.95267176935546     -2.13535916554221
  C           0.60631566371501      3.36350555869676     -2.81355430101924
  O           0.10984375906372      0.12425447856567     -0.76139028516690
  I           2.99504645106295      4.26246625320338      0.25191701982005
  H           0.68016620847644      2.97823102117676     -0.22524188560296
  H           2.59789721518800      2.72919571407530     -2.63210661900564
  H           0.63471353239813      3.47657967975557     -3.88266635874001
  H          -0.32608212176904      3.60124803543865     -2.32831193979388
  O           2.56796319784322      0.16775212919680      1.63556641263404
  O           1.29988716485558      1.89094140617639      1.84564586800653
  O           1.24825788382997     -1.04794140678005     -2.79603001331698
  O           3.08661387762765      0.01138964678834     -2.38858695746124
