20
Coordinates from ORCA-job P E -37.740637834950
  C          -1.23822310146908      0.80696425415090     -1.96657692239570
  C          -0.89655188030123     -1.18527354557751      0.24277827197262
  C          -1.80571803052254     -1.38736101470191     -0.92738129870139
  C          -1.96025747695030     -0.51280003643561     -1.90620476491495
  C          -0.63987703901277      1.16809105209902     -0.60274433065715
  C           0.09529710307859     -0.04358475049063     -0.01768029507722
  H          -2.35598920804529     -2.31667551288452     -0.94147768685616
  H          -2.61915601409876     -0.72662185486752     -2.73339425118746
  C          -2.19142244944783      1.89650181426073     -2.45407195439645
  H          -1.49702560489814     -0.94783925693933      1.12668927498242
  H          -0.43123884351500      0.73554455196694     -2.70863945060561
  H          -0.35800665932584     -2.11260643435583      0.45427234301104
  H          -1.44004823142440      1.45371431879165      0.08207384017645
  H           0.58751990974654      0.24372625640159      0.91897294527304
  H           0.04656409129963      2.00929386176871     -0.70644515600326
  C           1.12554264649758     -0.48863008095099     -0.92909587469454
  Cl         -3.62436404285411      1.99037748961590     -1.40516138328583
  Cl         -1.40032938715606      3.49074699105428     -2.46465126969801
  Cl         -2.74057498603138      1.56331344191046     -4.11473828388396
  N           1.93916920443041     -0.84372154481635     -1.64867375305788
