20
Coordinates from ORCA-job R E -37.644337265840
  C          -1.32518548992879     -0.34004540910919     -3.27822092249688
  C           0.04894246180928     -2.91304055602020     -2.51795692981152
  C          -1.26207381924805     -2.69703198012330     -2.54962110285056
  C          -1.89401319003135     -1.40017967720789     -2.70389100308061
  C          -1.10394346863426      1.80549399140831      0.29959917539052
  C          -0.71548810437724      0.56426939488036      0.03402438011547
  H          -1.94671453011132     -3.52662184115330     -2.42854433814419
  H          -2.90863768616186     -1.32437340238158     -2.33481633089252
  C          -1.97491284029006      0.97915075501583     -3.45530916186352
  H           0.44966262538893     -3.90410609820885     -2.39412777951190
  H          -0.33208997967755     -0.39722986050706     -3.69814705531560
  H           0.76320232543318     -2.11060208635437     -2.58491448935953
  H          -2.00448346206359      2.00491264327556      0.85379941571394
  H          -1.27966198349681     -0.30083882358049      0.35947617325147
  H          -0.53571474470365      2.65835200428874     -0.03339536604137
  C           0.45237368642070      0.26671948644441     -0.69666412910378
  Cl         -3.35733219650714      1.23930486907806     -2.37982739062199
  Cl         -0.79961307700833      2.28966292558432     -3.16558732243092
  Cl         -2.56109692477597      1.13603025209498     -5.14894483508432
  N           1.39725039796391     -0.00038658742435     -1.28920098786217
