20
Coordinates from ORCA-job TS E -37.631754600250
  C          -0.46815509886264      0.44316546233245     -0.99606256452918
  C           0.94229219099101     -1.84150553269556      0.04802315577484
  C          -0.38274199304189     -1.86294649625389     -0.22580588809627
  C          -1.07556795256512     -0.75924350102708     -0.77134617295294
  C           0.08315532791323      0.95731640206319      1.12521555191137
  C           0.81316505872488     -0.05955559937108      1.66515097767549
  H          -0.98315355419019     -2.69069380386423      0.12537107675674
  H          -2.15350648780653     -0.81698220026136     -0.82035589923564
  C          -1.24225642477750      1.60159127945909     -1.52302606807956
  H           1.40710506437142     -2.65498366710532      0.58007482612638
  H           0.58858567758530      0.49619104088890     -1.20695334355469
  H           1.61938073418035     -1.16730966839723     -0.44457509979386
  H          -0.95622404800054      1.06490948630515      1.38126801570097
  H           0.35767076238003     -0.80477651242728      2.30099732120167
  H           0.58273512140457      1.83256840529094      0.74659100598895
  C           2.22125251098183     -0.02288423109984      1.67250205500303
  Cl         -2.76723330093330      1.84934010799158     -0.64659777234934
  Cl         -0.30372160559912      3.10961582765364     -1.45474134451546
  Cl         -1.65014614980656      1.30279440603642     -3.25349380946773
  N           3.36736416705078      0.02338879448152      1.69776397643524
