26
Coordinates from ORCA-job NEB_reactant E -31.439225412690
  C           1.87479467040746      0.04426245543612     -0.06461873265390
  C           1.99082604857216     -1.07621722531394     -0.77542259512999
  C           1.64095374839541      1.40654107233051     -0.63811465277085
  H           1.93895522002610     -0.01692233345286      1.01145271866560
  C           2.18801885571471     -2.41441166607216     -0.11152608194824
  C           2.30601277725091     -4.39926272594446     -3.21280606653683
  C           1.74773273055548     -3.20423634540906     -3.19117769247321
  C           2.49601305241118     -1.91939473961760     -2.97979821808669
  O           1.82418903718827     -1.00037588085926     -2.14087334332484
  H           1.73400953305903     -5.29283959556932     -3.39434706177169
  H           3.36484399299880     -4.53489419681906     -3.05914070432238
  H           0.68521111633767     -3.07897109963155     -3.35075012215908
  H           2.56266980094725     -1.39776048046383     -3.94427996770277
  H           3.51709559573271     -2.11208350636219     -2.62681262181301
  C           2.62442393844669      2.42763697609007     -0.07005940081581
  H           0.62072676495021      1.72715523742910     -0.40392151222090
  H           1.73408952260493      1.35603431487396     -1.72321907193570
  H           2.52733387502996      2.48982630797936      1.01198962956649
  H           2.43625906018242      3.41327820848908     -0.48992924379305
  H           3.64698176325297      2.14123249122214     -0.30602807143932
  C           0.84583290548871     -3.11262257826410      0.11712296815875
  H           2.67904449748056     -2.25427312955357      0.84950425492206
  H           2.82740173687888     -3.06065433326708     -0.71337889809035
  H           0.20574724867401     -2.49689844548815      0.74435634672969
  H           0.99753924244372     -4.07266079695390      0.60554362894159
  H           0.33939326496981     -3.28378798480825     -0.82926548799558
