25
Coordinates from ORCA-job NEB E -38.715874884520
  C           0.21340887194183     -0.67331992896291      0.00475024295173
  C          -1.15671621878509     -0.83914348313263      0.26244508336430
  C           1.10690489961800     -0.25756859482634      1.14562989483605
  H           0.64329876635546     -1.44617222596951     -0.62894988014692
  N          -1.91128340574569     -1.66292337435904     -0.63477008202601
  C           0.09740829828328      0.83786945161265     -1.18379420589099
  C          -0.62943899990467      1.73043945557820     -0.40249108258310
  C          -1.96953508545513      1.37069263589759      0.01925337722550
  O          -1.83178318568857      0.11199942422719      0.87434497822341
  C           1.49642530202679      1.18750271058380     -1.61410996081685
  H          -0.44785751803340      0.30909611297063     -1.96099014377889
  H          -0.09502657377988      2.46799419386566      0.17919587654765
  H          -2.64512758511976      1.07562667442938     -0.78675710441630
  H          -2.44629330066028      2.08530057133558      0.68351020826017
  C           1.39677227766017     -1.47810857021438      2.01910397726206
  H           0.61008631203665      0.50678284450155      1.74388709161953
  H           2.04824736791773      0.14076983402192      0.76964245562038
  H           0.47479717987223     -1.86698380282228      2.44320796596942
  H           2.06516199973093     -1.20212093129209      2.83065087368732
  H           1.86723195378095     -2.26650881011403      1.43636430572698
  O          -1.30537519509289     -2.51975783182201     -1.26324544587826
  O          -3.10965418773918     -1.45967429619023     -0.71644486856452
  H           2.06954337744335      0.29450861037476     -1.84949026689826
  H           2.01787960264313      1.76114044429150     -0.85274255611839
  H           1.44092504669404      1.79255888601504     -2.51820073417602
