25
Coordinates from ORCA-job NEB_product E -38.739418529640
  C           1.95136076247410      1.09132421728499     -1.73881383667924
  C           0.72585877206245      0.51011437713267     -2.34107489354843
  C           1.72495427350579      1.33365815903039     -0.23275625689742
  H           2.78348422308260      0.39625960042298     -1.88666011566909
  N           1.01382440989589     -0.63702891836418     -3.36113012618429
  C           2.26669054959090      2.40577959394816     -2.50925526431673
  C           3.54507523579234      3.00428530481500     -2.00749037382930
  C           3.63710273368699      4.19540115269394     -1.44645666503879
  O          -0.41672918947636      0.78143651994851     -2.18470437871747
  C           2.39102017970293      2.14167734217263     -4.01267747583037
  H           1.44321328821673      3.10568428166988     -2.33481201442617
  H           4.42773621487107      2.39957032750778     -2.16885398422501
  H           2.77103493987664      4.81638914990978     -1.28571155856589
  H           4.58040930611759      4.60303550748784     -1.12562793996060
  C           2.99435141017168      1.11679859671242      0.57960853463813
  H           0.95373526617739      0.64940736799186      0.12749425337621
  H           1.35637219312120      2.34855316219403     -0.08033476282389
  H           3.35990389579424      0.09987098189755      0.45573009588550
  H           2.78904647366559      1.27860746479488      1.63473986729644
  H           3.77340399614148      1.80826060668160      0.27135129201832
  O           0.07659008294494     -0.97446870853116     -4.03257274859264
  O           2.13361171228184     -1.09005814912775     -3.39512888441859
  H           1.43214309466259      1.85650885565220     -4.44260535906139
  H           3.11299871661652      1.35113271831388     -4.20809354352239
  H           2.72920745902285      3.04460048776013     -4.51616386090691
