25
Coordinates from ORCA-job NEB_reactant E -38.734040918160
  C           1.73386445797307      0.10860571800775     -0.38445363208618
  C           1.29684614048889      0.76641769734835     -1.45911019564470
  C           1.85851307502816      0.69900184236648      0.97582330181371
  H           2.02775826800620     -0.92430846300808     -0.50977848613089
  N           1.20771566482355      0.06204541119223     -2.74118029475313
  C           2.37574711206193      3.37663760609321     -4.17318097142495
  C           2.60979943947296      2.80385699625548     -3.00373472731150
  C           1.79997967471848      3.06301842820539     -1.77208728696716
  O           0.83130311718532      2.03255177965852     -1.49953179735744
  C           3.13946768993076      3.10043460250933     -5.41950442932070
  H           1.57149136010179      4.09467080699831     -4.26412388518992
  H           3.40106822088279      2.07030092307860     -2.90251351092182
  H           1.19451866566510      3.96351686916136     -1.88269274480553
  H           2.45786511046779      3.16550157043296     -0.89763713312023
  C           3.31625341804639      0.69002037236686      1.44116551855649
  H           1.26440912636217      0.09696385063733      1.66829149283391
  H           1.46279482036626      1.71538025911075      0.97984365484564
  H           3.70785305209319     -0.32415173087946      1.44772443626373
  H           3.38949639626457      1.09706770374020      2.44608160877137
  H           3.93346754522743      1.29218043729775      0.77830228053400
  O           0.69201718018802      0.65003356480604     -3.66266442049009
  O           1.65303965902579     -1.06714490884813     -2.79312218055796
  H           3.95814750382610      2.40933008020966     -5.23615225702074
  H           3.53759560618953      4.02602720762732     -5.83349484660932
  H           2.47228769560376      2.66474137563177     -6.16226949390659
