26
Coordinates from ORCA-job NEB E -34.708581659640
  C           0.49248190602639      0.38190201214485      0.47317018773832
  C          -0.69591080628007     -0.36712086052967      0.39118287711736
  C           0.43711607652684      1.90191688399513      0.42048246739102
  H           1.16723356787849      0.04747571112848      1.25754657869311
  C          -0.75305111569953     -1.73133416242902      1.03487938081071
  C           1.30857520360245     -0.09473002488292     -1.17799235319889
  C           0.34978524827492     -0.61447780412935     -2.05877291423215
  C          -0.90192217502430      0.08417477897913     -2.03583457274884
  O          -1.51824826746037     -0.16316685256804     -0.60359011448560
  I           2.99738270032523     -1.34963181860198     -0.76697230728968
  H           1.67412653831833      0.90065643131933     -1.38232795088957
  H           0.29031498992925     -1.68828626592740     -2.18515727529453
  H          -1.67803780071103     -0.31231565791709     -2.68248401238427
  H          -0.83589786537569      1.16863806307776     -2.11674435394537
  C           1.77953477493719      2.54204819595743      0.75653819519176
  H          -0.29615833039873      2.22712065388811      1.16438372987566
  H           0.08409949903469      2.25944984870092     -0.54838509687761
  H           2.09675781476001      2.25426569898587      1.75643230349814
  H           1.69562891631727      3.62581786674389      0.72311901987072
  H           2.55805568006760      2.24351945249803      0.05764658391900
  C          -2.18468310135102     -2.20540935814002      1.25727837255749
  H          -0.20277224714237     -1.72013590910809      1.97619609295541
  H          -0.24649625435474     -2.43118598276052      0.35498536671008
  H          -2.68747082279661     -1.56189024451585      1.97524067172557
  H          -2.19197502075526     -3.22400175624331      1.63652835704391
  H          -2.73846910864893     -2.17329889966569      0.32265076624825
