26
Coordinates from ORCA-job NEB_reactant E -34.745883841930
  C           1.91212002116372     -0.20055739696993     -0.02663715154219
  C           1.51547607226292     -1.22103042242762     -0.77830598535557
  C           1.84406021147927      1.24294524375296     -0.41523186350599
  H           2.32303320758189     -0.40708473745213      0.95117172065534
  C           1.57415523170758     -2.65925943328837     -0.33869445454502
  C           3.57242595123644     -2.68274673122589     -3.61652997852357
  C           2.29888799514772     -2.36299020874810     -3.50565349289408
  C           1.83367619040873     -0.98878366054456     -3.11396140269602
  O           0.93367694902673     -1.00597544242479     -2.02571168248503
  I           4.23945691381871     -4.60470682939137     -4.16008574402491
  H           4.37751238757930     -1.98766217103345     -3.44655283594282
  H           1.51303980081836     -3.08502324359781     -3.67622362280929
  H           1.26235532835309     -0.55759888218118     -3.94415859583576
  H           2.69551511648201     -0.34242993621465     -2.89914655568481
  C           3.23495533383763      1.87601399153996     -0.45666221368762
  H           1.23631657747187      1.77562567876830      0.32164233625848
  H           1.35608824593500      1.34029361739437     -1.38588969592575
  H           3.71816202731646      1.79670469140792      0.51473345370537
  H           3.16530306749031      2.92807066884829     -0.72284130667573
  H           3.86370910123206      1.37608507426193     -1.19106080026770
  C           0.16626876281989     -3.23548938261823     -0.18931953197262
  H           2.11098745470814     -2.72705131553856      0.60784103595574
  H           2.12042775908743     -3.24227344793135     -1.08522050187981
  H          -0.37163497762980     -2.71356271883497      0.59836999799554
  H           0.21198025579428     -4.29332676832211      0.05819769529261
  H          -0.38595498512973     -3.11448623722867     -1.11796882360879
