26
Coordinates from ORCA-job NEB_product E -34.767446463050
  C           2.40276954690548     -1.10862648358188     -1.06730374875438
  C           1.14138213520147     -1.94150679689345     -0.82703005442565
  C           2.02622870820518      0.37188909688411     -0.87748627396262
  H           3.16003477205587     -1.38175369511855     -0.32415093935205
  C           1.21681219585590     -2.86253226253044      0.36589523410242
  C           2.98367223281103     -1.34956950334056     -2.46090313377218
  C           2.11286362850845     -0.92671805277783     -3.58317374892545
  C           2.54204332564389     -0.18242554441979     -4.58761711347457
  O           0.16373533116299     -1.83671638833077     -1.52161566646089
  I           3.41468213695336     -3.49794988949528     -2.69292664924049
  H           3.96972093151272     -0.89075448373423     -2.53879250806830
  H           1.08946476783600     -1.27139024408713     -3.54033145999661
  H           1.89031097790247      0.11242470123715     -5.39125873180578
  H           3.56275678027267      0.16226509365026     -4.64957673378813
  C           3.22140359923646      1.31346490377943     -0.95457505053356
  H           1.55449449761390      0.47378464514051      0.10351474678908
  H           1.28669528080673      0.64666501230371     -1.63174232553336
  H           4.00515856324783      0.99934055242873     -0.26793936652340
  H           2.91425716317323      2.32041966936793     -0.68328242683081
  H           3.63066941182522      1.34770273391961     -1.96071050373144
  C          -0.06463039729395     -3.65878087127843      0.56472041848046
  H           1.43276651563845     -2.24788743617240      1.24495307403960
  H           2.06599683449496     -3.53673573031028      0.22653489763500
  H          -0.90888384151184     -2.98701385817396      0.69863550030708
  H           0.01787834112671     -4.30138281800804      1.43719416168549
  H          -0.25878343918518     -4.27561235045841     -0.30883159785942
