15
Coordinates from ORCA-job NEB_reactant E -23.298267630810
  C           0.85548552577415     -0.28818164945511      0.06070182371741
  C           1.73445462551737     -0.87142132149341      0.85825501233698
  H           1.19579034890023      0.31920323593755     -0.75604598376709
  H          -0.20911020967009     -0.38946556245149      0.17177685791418
  H           2.80101180510621     -0.76113196611978      0.71641007578694
  C          -1.91957742759863     -2.70562020006104      1.23390847593649
  C          -0.59325980859742     -2.72770614655078      1.35512501361422
  C           0.17199695607802     -1.88125976193065      2.32456294177319
  O           1.51004232551642     -1.66192156906828      1.93865707184861
  C          -2.60893684090619     -3.54171772633847      0.33513490733396
  H          -2.53902381168251     -2.04216071139308      1.82474951144657
  H           0.00442311614648     -3.39787725681770      0.75161810766825
  H           0.24714379271355     -2.41434840748541      3.28097760766092
  H          -0.34164229437015     -0.92553427841698      2.50148433121615
  N          -3.18179810292742     -4.21455667835538     -0.39551575448678
