20
Coordinates from ORCA-job NEB_product E -48.505761952740
  C           2.43991256580594     -1.56965163887886      0.21563429538062
  C           1.17663837162190     -1.82781392837888      1.00342473620732
  C           2.12502550320004     -0.60465470541521     -0.93144259741122
  H           3.19938877646143     -1.07312006835683      0.82947523208711
  C           1.29290738635831     -1.64185036942792      2.51435595065199
  C           3.02689317450450     -2.89211686128370     -0.34290460079147
  C           2.11033883416463     -3.59995502199679     -1.29383400808085
  C           2.43363752157857     -3.86725699130367     -2.54472199531112
  O           0.13316447637293     -2.16220208540526      0.52883773393730
  H           3.25757013050673     -3.54557537927841      0.50285524094783
  H           3.96410159217880     -2.64732966570933     -0.84714373480732
  H           1.14742437829903     -3.89270329245842     -0.90012787809606
  H           1.76053039789422     -4.38795701127480     -3.20191712245050
  H           3.38556876825087     -3.57985208611532     -2.96055255650325
  F           3.21388331988937     -0.38010361660065     -1.67661262148673
  F           1.16551215126629     -1.01683908878254     -1.75177306268184
  F           1.73859141937340      0.58917791498080     -0.45189446933366
  Br          1.60789904001967      0.25848907827858      2.86484791259433
  Br         -0.34527274603779     -2.20333662288457      3.36351711358818
  Br          2.77588493829118     -2.67824855970824      3.22507643155933
