20
Coordinates from ORCA-job NEB_reactant E -48.494176991680
  C           1.78001086629178     -0.15894114505934      0.17074054576472
  C           1.65120663353503     -1.33060982424046      0.81014752262444
  C           2.14818380890318      0.11444569838283     -1.24597748644832
  H           1.59834085620018      0.75229824544811      0.72127219350671
  C           1.27068810583778     -1.28878614373046      2.27710958107288
  C           3.46503374441966     -5.12432383787896     -1.28440497657838
  C           2.41332872053371     -4.48887468649220     -0.80681888025928
  C           2.24844491739143     -3.00052529608813     -0.85936621679375
  O           1.81581351159769     -2.58933609560197      0.43968599255096
  H           3.54015627494972     -6.19650601850297     -1.24582629846287
  H           4.28573262743752     -4.60064481243158     -1.74636018940344
  H           1.59488395660226     -5.01617418325841     -0.33853551756902
  H           1.48094836329932     -2.73641022936353     -1.59698189507828
  H           3.19383367011881     -2.51694653640648     -1.11811035495213
  F           3.39866972546637     -0.27549594437910     -1.57202052377933
  F           1.33605341880526     -0.47648195352825     -2.14559728536002
  F           2.09154521094740      1.42473017133647     -1.49498382893855
  Br         -0.30668211671522     -0.19002653501886      2.57904062719741
  Br          0.90155029660615     -3.05435083923091      2.95176131714554
  Br          2.75665740777198     -0.53934003395580      3.30872567376071
