21
Coordinates from ORCA-job P E -27.816451953450
  C          -1.53926181315391      0.51193072163687     -2.24099215414972
  C          -0.14687596416689     -1.58200291536247     -1.18064419130070
  C          -1.49696907184719     -1.84078733408069     -1.76096526992909
  C          -2.17041913320595     -0.83772943898924     -2.30457028397123
  C          -1.08059235272557      0.78343166325965     -0.81221976801042
  C          -0.13982800854244     -0.31766481053600     -0.27851251527666
  H          -1.88652233279289     -2.84650565734037     -1.74518309041695
  H          -3.14143618014892     -0.96182744974508     -2.75455647093717
  I          -2.89099214748035      2.08351896481848     -2.90245865007642
  H           0.21095397392229     -2.43984907606380     -0.60945389587715
  H          -0.69384961392244      0.57232868791473     -2.93097333574578
  H           0.55254772330341     -1.41604021810552     -2.00659110970561
  H          -1.96464161404325      0.83356413595739     -0.17446519899513
  H          -0.51145553501926     -0.61909595747972      0.70754157429825
  H          -0.57025811307310      1.74429398970362     -0.74104667316180
  N           1.18383531740208      0.23052127125182     -0.03089671954021
  C           1.96221403677573      0.65791942546562     -1.17554054777820
  H           1.72741869667974     -0.42576793996592      0.51936453227691
  H           1.38917874072818      1.37421444214108     -1.76161951089734
  H           2.28470144276402     -0.15631745050202     -1.84111711799503
  H           2.85399194854668      1.16163494602158     -0.80449960281055
