21
Coordinates from ORCA-job TS E -27.720785095170
  C          -1.31014168258506      0.39440852469107     -1.27414557292509
  C           0.10192256437329     -1.83425407569644     -0.21626737935434
  C          -1.23243038808502     -1.86155980160370     -0.43814208156573
  C          -1.94152642112288     -0.79455798103052     -1.02690019321584
  C          -0.68719209334499      1.03616960404518      0.65528411272573
  C           0.21613154403083      0.16887751063303      1.21945693597542
  H          -1.81938349260679     -2.67029322203712     -0.02340417632940
  H          -3.02020720687383     -0.83948520376554     -1.01896343542527
  I          -2.43795513826482      2.01740275606265     -2.05424848765863
  H           0.58211609839697     -2.62602466561689      0.33553436490174
  H          -0.29734904165416      0.44088486146580     -1.63013000603566
  H           0.75792500298927     -1.19236431684905     -0.77411760533054
  H          -1.68786795364292      1.03657226605349      1.05024222243750
  H          -0.12177047651967     -0.57448180365894      1.92423925787784
  H          -0.34393119923671      1.98049539583030      0.26937882471190
  N           1.57992096659098      0.33910575310422      1.21109719377835
  C           2.24888088185180      1.18839351363721      0.25757350528787
  H           2.11188393556698     -0.47336590081481      1.48328536106014
  H           1.80365970366081      2.18219516970346      0.27706335704130
  H           2.20167755519217      0.80572932241648     -0.76969325094054
  H           3.29563684128376      1.27615229343011      0.54285705298326
