27
Coordinates from ORCA-job NEB E -39.689305675980
  C           0.30490073749991      0.48239900961114     -0.05257336755978
  C          -0.81955121758551     -0.08914666483480      0.57543039146736
  O           0.14517885164181      1.30903952266563     -1.15458803797921
  H           1.10631342160486      0.81764218470264      0.61958252518578
  C          -0.69792545882581     -0.60972447964597      1.98928463080237
  C           0.98008987622020     -1.04424713630079     -0.94919643592490
  C          -0.11017336924816     -1.40005352526138     -1.75236696021922
  C          -1.31575962375110     -1.78397987194473     -1.09567764240119
  O          -1.77818021764948     -0.53928435949253     -0.19092660321434
  C           2.27506910512883     -0.62794253413889     -1.61058109034495
  H           1.18213364313849     -1.65972130026280     -0.07405868548045
  H          -0.17599237712687     -0.95044886798726     -2.73058872095747
  H          -1.21647476055930     -2.56188905993919     -0.33988288361023
  H          -2.17727703546538     -1.94080153414269     -1.73377026360898
  C          -0.15552028515074      2.63603834780014     -0.80073436545320
  H           0.62837486194907      3.06438103276745     -0.16184799237066
  H          -1.11424826047059      2.69792509503844     -0.27303278235334
  H          -0.21070710563954      3.19428788604406     -1.73266150066951
  C          -0.83467843882346      0.51921949422314      3.01140653601591
  H           0.27137310998932     -1.10146749525206      2.12458371155201
  H          -1.48768325762588     -1.34465818331784      2.15343807372708
  H          -0.05238020042906      1.26118810077773      2.87003598258450
  H          -0.75962273648561      0.12516467921322      4.02220857018494
  H          -1.79825015237536      1.01027406428089      2.90182222035399
  F           2.08032184375510     -0.01300668768324     -2.81472489572064
  H           2.88423447398783     -1.51917817640070     -1.81366532926645
  H           2.84643457229642      0.06799045948038     -0.98691508473943
