27
Coordinates from ORCA-job NEB_product E -39.731390620130
  C           2.46373203745991     -0.96777587761315     -0.79412000254327
  C           1.29124709799131     -1.01668027848751      0.19704153126267
  O           2.28402930554134     -0.00274731818123     -1.79494044345745
  H           3.39621434161949     -0.76766456842487     -0.23203877826081
  C           1.65659805757175     -1.53130106821486      1.57473687185261
  C           2.56362758913749     -2.36012555069573     -1.46519254008163
  C           1.35637694154095     -2.59867037971732     -2.32492784793986
  C           0.49955502278955     -3.58103942424109     -2.12830561361783
  O           0.18320891128814     -0.66272633029187     -0.10298456862612
  C           3.85189262411151     -2.49855987623047     -2.28576491165887
  H           2.61649157884560     -3.11854213744297     -0.67612520351819
  H           1.23320610631367     -1.88716823961347     -3.12657695825495
  H           0.61459276353909     -4.28825957325786     -1.32144292702362
  H          -0.35775342373812     -3.71963960357740     -2.76311603600216
  C           2.34894711466012      1.32187607631698     -1.33596410764339
  H           3.30314892894417      1.51900772149217     -0.82836505294548
  H           1.52587036158991      1.55730928799749     -0.65275332684979
  H           2.27404654090180      1.94994679373537     -2.22078644530021
  C           0.43737504424216     -2.03654490092363      2.33518851693814
  H           2.10633358569597     -0.68979590187364      2.11142003269583
  H           2.41925735847401     -2.30755399730252      1.49078698375342
  H          -0.32461731841235     -1.26263905394212      2.36841383787192
  H           0.70680649740875     -2.31309497343547      3.35120474265929
  H           0.01513383087491     -2.90405540099441      1.83422982255201
  F           3.87963258528956     -1.66510040324026     -3.36652452211355
  H           3.93370596884133     -3.51964142269010     -2.67629366791478
  H           4.73284054747798     -2.25841359915004     -1.67839938583391
