27
Coordinates from ORCA-job NEB_reactant E -39.727826087060
  C           1.27290391388034     -0.22676426976088     -0.06985538007845
  C           1.28023069916285     -1.36520666929598      0.62440026985958
  O           1.07357654671248     -0.09105757926009     -1.42924814281097
  H           1.41579328595272      0.70574695955838      0.46561330223648
  C           1.38697630091990     -1.34299127429462      2.12767713020086
  C           3.01418469301291     -3.38592684620946     -2.82645842843957
  C           2.53865867517592     -2.71626845586611     -1.79138889925581
  C           1.16826562750416     -2.90087639631597     -1.21278048352807
  O           1.12481419261885     -2.64801973086203      0.17504127045561
  C           4.36728313960492     -3.16714940324612     -3.42552637546035
  H           2.43138997123754     -4.14711391898570     -3.32638420052173
  H           3.14628079919200     -1.96459652526172     -1.30775307401003
  H           0.83816548369419     -3.93818049298282     -1.32277467052121
  H           0.46211829977985     -2.24551584473355     -1.73917051848047
  C           1.80249384333469      0.95906745410498     -2.01599647508231
  H           2.87825109917987      0.75048176157356     -2.01274414603515
  H           1.62234672870058      1.90590115506210     -1.49347258778523
  H           1.45448879978271      1.03951850623616     -3.04436748289475
  C           0.00622426554825     -1.43851170592721      2.77668198102936
  H           1.88473849310190     -0.42788451328985      2.44860882801260
  H           1.98851754038771     -2.19853051796391      2.43779021837476
  H          -0.60653313460081     -0.58780991820717      2.48822951228953
  H           0.09701166270217     -1.45285084219022      3.86024331162290
  H          -0.49230394890860     -2.34916044150891      2.45593987630395
  F           5.04345607408849     -2.13849483690527     -2.81871662388789
  H           4.28728477909144     -2.90672981388369     -4.48878794896317
  H           4.99458216914294     -4.06197583958390     -3.32080026263046
