22
Coordinates from ORCA-job NEB E -39.133050357340
  C           0.43637160928361     -0.29003056482284     -0.63835494460875
  C          -0.94859292827674     -0.09521470612559     -1.13457982783611
  C           0.45465188403171     -1.18157649316209      0.63196535042864
  H           1.01353952852697     -0.80943085325115     -1.41077430827895
  N          -1.49788997256718     -0.97450826225849     -2.10422185377663
  C           0.98493745614186      1.08669827749683     -0.35435825860231
  C           0.18318266804479      2.05660965572407      0.05627439748044
  C          -1.28954356885366      1.82895520244464      0.12211608442963
  O          -1.72611747558805      0.87439209991261     -0.77865448928394
  Br         -1.80363600943047      0.77477591062890      3.17934409148410
  H           2.04303353756486      1.23814333239455     -0.48579969161480
  H           0.53364223544143      3.03942100570801      0.32035279183412
  H          -1.88509820090096      2.72838370691996     -0.04929633666784
  H          -1.54900829639686      1.48012536602377      1.18442731917228
  C           1.88500967495685     -1.52216474645462      1.06356652674534
  H          -0.09549280135978     -2.09500409635783      0.40512039389604
  H          -0.06836067970222     -0.66437178880906      1.43532830371113
  H           2.05954623305901     -2.59259008784495      1.01208449655022
  H           2.06439238863539     -1.19837943969782      2.08433371115060
  H           2.61967589053207     -1.03696977760543      0.42758689447075
  O          -2.63437743811205     -0.75783798602446     -2.48372870354299
  O          -0.77986573503059     -1.88942575483900     -2.48273194714096
