22
Coordinates from ORCA-job NEB_reactant E -39.142353006700
  C           2.66211658320940      0.35473743024098      0.20770632738493
  C           2.08649900369247      1.28267650200358     -0.56062719614762
  C           2.28709295655152      0.00404253735475      1.60555414341384
  H           3.45866247600460     -0.22269976834122     -0.24200343557261
  N           2.52095995468604      1.41029756529411     -1.95309560412053
  C           1.59173513992988      4.82958166803151     -0.92454223114793
  C           1.56262602612041      4.44362439910008      0.33758322943006
  C           1.24657140135175      3.04958535773432      0.79908703217344
  O           1.06827447428095      2.12088621272619     -0.26280855323193
  Br          1.98138823609592      6.61080340055909     -1.40938786545347
  H           1.40938282582912      4.18111774329385     -1.76710149349055
  H           1.75160672657906      5.13836584196640      1.14434949690992
  H           0.29860507958403      3.06889153670236      1.35116705410435
  H           2.03545334491409      2.71318036969498      1.48195889927450
  C           2.28657023919280     -1.51198303801398      1.79691615072171
  H           1.30261555652476      0.40889576740056      1.84685200159057
  H           3.01812296251739      0.44334167169297      2.29283011998155
  H           1.56600065804527     -1.97705344376387      1.12929347767521
  H           2.01854315596338     -1.75830051994713      2.82081316464054
  H           3.26979331423554     -1.92509169393504      1.58696106086712
  O           1.97697606238833      2.25708105339284     -2.62323887509279
  O           3.38650382230329      0.65831940681268     -2.34416690391031
