22
Coordinates from ORCA-job NEB_product E -39.143879858010
  C           2.59188084934272      1.43298720476279     -0.27266957332702
  C           1.56653509075317      1.28857753210692     -1.34469365526822
  C           2.32400311230296      0.30247414148583      0.75154941050439
  H           3.57926754057244      1.25143463589844     -0.71451821362622
  N           1.88437267432700      0.12719958911811     -2.33033910061533
  C           2.51557349503973      2.86619856946611      0.28158495201843
  C           1.47468337669008      3.08487554654752      1.32499856369372
  C           0.41412876883157      3.84659428327804      1.13049079715619
  O           0.56263418507208      1.88547012095890     -1.54148896986178
  Br          4.28524036052418      3.39377170138009      1.00440658559679
  H           2.35709006232732      3.55597039277653     -0.55164015524880
  H           1.64452680097296      2.60138226298993      2.27648590419524
  H           0.23367476981879      4.34416365042642      0.19222326916014
  H          -0.32495559983951      3.98846100890212      1.89931021653000
  C           3.41554094554354      0.18673931069430      1.80762973287981
  H           2.27614108090947     -0.64273711987587      0.20631780528504
  H           1.35228744862518      0.46727876105333      1.22131112808452
  H           4.38996418101124      0.07196091694737      1.33960001288197
  H           3.22579919674605     -0.68920873325814      2.42308816217537
  H           3.44745516454420      1.05494050600656      2.45852265999560
  O           0.96474932329345     -0.23177232645743     -3.01205745341703
  O           3.01090717259140     -0.30656195520787     -2.32971207879282
