23
Coordinates from ORCA-job NEB E -59.515913842560
  C          -0.15228644224035      0.93765964877858     -0.21232644595311
  C          -0.33968855852592      0.71723924227386      1.16886953974704
  C          -1.40365165668857      1.15988169830924     -1.02478458319832
  H           0.59011450734109      1.69390168841873     -0.46755537721813
  C           0.62209278354899      1.28502492585753      2.17694601613992
  C           0.72809496592411     -0.73251808885529     -0.64261645975258
  C          -0.17580155637346     -1.69749961595919     -0.19503197604873
  C          -0.55754196906824     -1.68697767837696      1.19453392069974
  O          -1.09474471716510     -0.27944663396739      1.55872215498156
  C           1.18701593258058     -0.81613423857799     -2.08316478816156
  H           1.58015781354752     -0.50011420562512     -0.00928855117114
  H          -0.79169380141093     -2.22194595172783     -0.90919054111055
  H           0.27042454764011     -1.79690916719419      1.89452958551619
  H          -1.38697959524289     -2.34290837268364      1.44050665251294
  Br         -2.23444881121779      2.80927626327405     -0.28231960211178
  Br         -1.06985545282323      1.56629566771313     -2.89057427633377
  Br         -2.75845760257112     -0.20602444380756     -0.92195715266208
  Cl          2.11735081284882      0.25593277016378      2.30081429057009
  Cl          1.13810382854339      2.92346271037016      1.75126084678723
  Cl         -0.14237302305888      1.29962527629685      3.77561408544270
  F           0.18920403192484     -1.14349419219908     -2.92992376127922
  F           1.71029123191224      0.35785830977240     -2.50241055408852
  H           1.97467273057478     -1.58218561225406     -2.19065302330793
