23
Coordinates from ORCA-job NEB_reactant E -59.555840009110
  C           1.09585305657659     -0.31919870580717     -0.41144879368927
  C           1.90548391668102     -1.35326766789353     -0.11320450839085
  C           1.27306205715035      0.42244353058737     -1.67226061701904
  H           0.30695647085243     -0.00693799639041      0.24909915324290
  C           1.78967263688762     -2.08457127556915      1.19957413995128
  C           2.58080379936296     -4.20100875699878     -2.27945872752006
  C           3.59254912396887     -3.93547173809339     -1.47158345559504
  C           3.88706970025148     -2.59923324861064     -0.86077261398660
  O           2.84193519923264     -1.65155037048084     -1.02237073118114
  C           2.34418091595803     -5.55465684067548     -2.87728253606545
  H           1.86512226300163     -3.45371592749480     -2.58606851874075
  H           4.30360045352023     -4.70555470725747     -1.20715959980181
  H           4.73561565187914     -2.15374501862144     -1.39642350490261
  H           4.17354982330400     -2.71533125137129      0.18651937644587
  Br          0.03074648150349      1.90523765770321     -1.79365656858562
  Br          3.09361405271959      1.14621139828458     -1.83550775295313
  Br          0.98539593763807     -0.73571428912147     -3.23577068234636
  Cl          3.19567721939345     -1.65097188560337      2.23247917778168
  Cl          0.32549088543401     -1.64371342528296      2.09678166682684
  Cl          1.74324945907502     -3.85445424068895      0.96458402056482
  F           2.51996810720564     -5.52108141002959     -4.22337818120439
  F           3.21209303353068     -6.48150147896616     -2.40580739856800
  H           1.32240975487310     -5.92751235161826     -2.69138334426327
