23
Coordinates from ORCA-job NEB_product E -59.558549482600
  C           2.19777457178740     -2.02126435665524     -0.65501651388178
  C           0.83045558617880     -2.53488433437772     -0.19508972709902
  C           1.96521834328144     -0.58833189644192     -1.12704941684639
  H           2.90383834559583     -2.00081187626132      0.18168499792376
  C           0.60553043595974     -2.76794037944844      1.31110141867746
  C           2.74168739073674     -2.93995597678681     -1.77511369324165
  C           4.01310376769230     -2.42276551728315     -2.39091267598076
  C           4.14254461277291     -2.15579259458397     -3.67704145341644
  O          -0.05181561246168     -2.74721634791651     -0.97174255583081
  C           3.02207962699517     -4.34620554013954     -1.22644952745214
  H           1.96945521146507     -3.06105596956470     -2.54395333882583
  H           4.84765141952167     -2.32169443124142     -1.71014861220901
  H           3.32240107568761     -2.25749699372652     -4.36859201554246
  H           5.07500199361338     -1.80684910518869     -4.08357923066620
  Br          0.84455535095002      0.37963779471190      0.15888324781804
  Br          3.62720447085100      0.41254204447759     -1.25338911467277
  Br          1.06347642212405     -0.49351648872676     -2.83476155928047
  Cl          0.64743594222517     -4.53306565118270      1.55690238122620
  Cl          1.80506720005820     -2.01815195694302      2.37328273570316
  Cl         -1.00990199230225     -2.16039518391940      1.73316161485268
  F           3.63083852455101     -4.29534444870855     -0.01885482109739
  F           1.87866901864520     -5.04337478247429     -1.05266301993009
  H           3.66512829407120     -4.92566600761882     -1.90645912022812
