23
Coordinates from ORCA-job NEB_reactant E -40.950116074950
  C           1.60555487808106      0.15831826278097     -0.04336781673593
  C           1.39448007600392      0.77354742769817     -1.21108584929796
  C           2.12306176337986      0.69575953707170      1.25433715918322
  H           1.40619997461791     -0.90194150591619     -0.03202686195598
  C           0.84314656365587      0.01998995906837     -2.39017508282418
  C           2.77746658453157      5.34640584889921     -1.40023121712543
  C           2.82179450245577      4.05849695729118     -1.69461812665177
  C           2.34039494177165      2.96982370103274     -0.78911789465531
  O           1.58558416160729      2.06502918004022     -1.57602352214271
  C           3.28573476605672      6.42543876990161     -2.30656220249301
  H           2.39349228117224      5.71558654012828     -0.46046437345898
  H           3.21437625113027      3.72298297733240     -2.64421621642323
  H           1.72563295833239      3.39008112998738      0.01571138242629
  H           3.21374650145851      2.46537686599429     -0.35866511578047
  F           3.50637652108095      0.84448483628107      1.24177762747511
  H           1.91206333195668     -0.00816318943950      2.06410102628573
  H           1.71875334833420      1.67810999920012      1.51355525769765
  H           1.62649340410149     -0.11853572406959     -3.13340580218069
  H           0.05042577380065      0.60581532098742     -2.84937928596789
  H           0.45698815501641     -0.94903169329689     -2.09476254964104
  F           4.21279765394920      7.19039353810118     -1.66825637478166
  F           3.89615567788449      5.93256585438764     -3.40822860923295
  H           2.48607992962090      7.10776540653824     -2.64539555171880
