17
Coordinates from ORCA-job P E -26.673040648910
  C          -1.32368093905311      0.60539249450140     -2.31586976929364
  C          -0.36229906184392     -1.64482412656416     -0.61881603085757
  C          -1.28496055915326     -1.82089002041596     -1.78545694956354
  C          -1.71666283765181     -0.83137577516851     -2.54709106930002
  C          -0.82456518387111      0.82204923708819     -0.87961054889661
  C           0.21765983387006     -0.23590792797920     -0.53753482788340
  H          -1.58954003863173     -2.83736052792796     -1.98914285749481
  H          -2.36814821621192     -1.01497662033444     -3.38886549750925
  C          -2.44606954951103      1.47416272728328     -2.58466180179457
  H          -0.89986097743947     -1.86415985021885      0.30811839922578
  H          -0.52189462275351      0.86959246700185     -3.02096043871536
  H           0.46100073718310     -2.35982396555324     -0.69610081270425
  H          -1.65533344737021      0.73061861931297     -0.17776932392227
  H           0.65233872551745     -0.05016969841447      0.45331287177556
  H          -0.39193244617693      1.81934414649122     -0.78149679604154
  F           1.27364081961188     -0.12505849157125     -1.42708032856251
  N          -3.34536223651449      2.15119731246914     -2.78235421846202
