17
Coordinates from ORCA-job R E -26.578708705990
  C          -1.28146568047609     -0.10036126872841     -2.83172825883827
  C          -0.05209705608598     -2.67068691325213     -1.86750434614164
  C          -1.35393757216449     -2.41093258917312     -1.95095765211199
  C          -1.92959277264211     -1.11432064585727     -2.23796203284076
  C          -0.89217765154902      1.94556029184157      0.12481315603941
  C          -0.24189022376523      0.81591519984504      0.28932282428865
  H          -2.07076792513417     -3.20215163726764     -1.77015540469356
  H          -2.96714688801911     -0.97958953683406     -1.95767445083726
  C          -1.88806856299368      1.14405351794683     -3.05598361024139
  H           0.31234913582784     -3.65905350768824     -1.64404417959125
  H          -0.25582709731329     -0.18664072273027     -3.16257757462036
  H           0.69609986006719     -1.90610277712983     -1.99198803633174
  H          -1.67789263122931      2.22517322132433      0.80018101641334
  H          -0.40592856232719      0.08219840390997      1.06540302571379
  H          -0.66486640801843      2.61616830683645     -0.68472949810452
  F           0.74607833464656      0.43635601472369     -0.54058157963199
  N          -2.37242829882350      2.17033464223309     -3.23209339847046
