24
Coordinates from ORCA-job NEB_product E -36.572474520720
  C           0.93680397711480      1.41505179248342     -0.38649015483493
  C           1.66522453050689      0.24379535998895     -1.06633944497604
  O           1.79098954356134      2.14093569138464      0.46785435889769
  H           0.07043629237362      1.03493602816879      0.18320436939558
  C           0.84436691996718     -1.00751309277518     -1.22571069557321
  C           0.45400690511989      2.38023724157674     -1.49202982532116
  C          -0.53826943069320      1.72241382280747     -2.40323639841188
  C          -0.34936318166106      1.53582780750177     -3.69558934205430
  O           2.80429329763357      0.34016629354388     -1.43606723613239
  C          -0.17379145921657      3.61381718230446     -0.83686514268465
  H           1.33249081802455      2.70130399315188     -2.05898155082985
  H          -1.46866156956201      1.42716066791894     -1.93271598791324
  H           0.56331203071528      1.83626327833186     -4.18185473882701
  H          -1.09779969481185      1.07955947376992     -4.32063963550505
  C           2.24702849871511      1.40678815030594      1.57806323371991
  H           2.83042226858922      2.10085618764166      2.17895427557320
  H           2.88191769494145      0.56686143365170      1.27811892061531
  H           1.40550269512400      1.02617416319588      2.17175376648610
  H           1.40528080755510     -1.75070920642790     -1.78577002364557
  H          -0.08158099114134     -0.77332698579651     -1.74581923631954
  H           0.59423990429366     -1.40620288899416     -0.24414189394224
  F          -0.51349019780915      4.53600570154724     -1.79391399254598
  H           0.53722885742402      4.09409222648681     -0.16059931709544
  H          -1.09648851676450      3.35720567823183     -0.30468430807529
