21
Coordinates from ORCA-job NEB E -52.427820422710
  C           0.47217982419555      0.44522400641603      0.91156532046238
  C          -0.84518716994683      0.01844900960403      1.20890936158020
  C           0.61925266650021      1.85916652492233      0.77074712998593
  H           1.28332796672113      0.00091177807223      1.48396630489300
  C          -1.11051203439537     -1.17867310348289      2.04620037946793
  C           0.67437237196741     -0.18410068696681     -0.85822386928107
  C          -0.39077666207888      0.44785106960830     -1.51126698979968
  C          -1.72433832177824      0.15867975556181     -1.05029475118851
  O          -1.84302666067487      0.43163870709787      0.46962353269293
  C           2.08258416263612      0.06079084508042     -1.34433232158755
  H           0.55369314050654     -1.24237358260945     -0.62926824948641
  H          -0.21097361991332      1.36923168427385     -2.04308596755825
  H          -1.99818606764755     -0.89712185380257     -1.10532582718957
  H          -2.49966794982276      0.78831689938143     -1.47563130696729
  N           0.69112616143880      2.99853452395434      0.72937340858603
  Br          0.08194378542903     -1.35470224248699      3.55638920996871
  Br         -2.94733812038180     -1.17215885162901      2.65252463751823
  Br         -0.88211964249697     -2.88441533105404      0.91109543104035
  Cl          2.28796105906621     -0.90509326792825     -2.84000124729882
  Cl          2.42301630032044      1.75768206049407     -1.72160028834853
  Cl          3.28266881035515     -0.51783794450668     -0.16136389748999
