21
Coordinates from ORCA-job NEB_product E -52.462858138390
  C           2.88692065103934     -1.12938176067571     -1.43634806003733
  C           1.56111240809225     -1.57291669590751     -0.84256660559637
  C           3.02008624913618      0.26696936751794     -1.06471481862769
  H           3.72750081626621     -1.68438421661531     -1.00348931485974
  C           1.67644179014692     -2.40714463406963      0.42700269390922
  C           2.86426128237945     -1.34682944667357     -2.97043475292140
  C           2.00999568214286     -0.32229856690851     -3.66470246211257
  C           0.95280367322127     -0.63466547058395     -4.38819087861948
  O           0.49045706000237     -1.33963411722754     -1.31392491959289
  C           4.29208479602551     -1.33541356569920     -3.52573874285796
  H           2.45999505489176     -2.34730799543712     -3.16485074357326
  H           2.31542405136083      0.70515732954985     -3.52843353092725
  H           0.63451205458996     -1.65453589330838     -4.52704610926146
  H           0.35723031828935      0.12290607967781     -4.86518984035880
  N           3.07896493671385      1.35264351099033     -0.71878508093648
  Br          2.88072620855793     -1.62043146520496      1.73262731013301
  Br         -0.06643272106337     -2.67748683215053      1.20435235415310
  Br          2.39661135675257     -4.12932379345545     -0.18781697642489
  Cl          4.23698715514024     -1.58786605215905     -5.28285056300640
  Cl          5.11828849304732      0.20201541399216     -3.18761563954235
  Cl          5.25172868326720     -2.66287119565168     -2.80578331893902
