24
Coordinates from ORCA-job NEB_reactant E -57.699308575460
  C           1.60516906213178     -0.03008728712155      0.42663215203757
  C           1.31549291841075      1.27813534064346      0.40256046247865
  O           2.35190405119494     -0.58956426114136      1.38877857614401
  H           1.24808101011369     -0.67188723823858     -0.37019676694382
  C           0.43744269006733      1.81522980770223     -0.70026401452900
  C           0.51303862432509      0.98880615487871      3.49189163748055
  C           0.11846216286525      2.17295108040494      3.05365130100407
  C           0.87056330508194      2.95630075663297      2.02147963464026
  O           1.81909425514615      2.18650891595030      1.29982926707049
  C          -0.24510130489561      0.18771926458690      4.49669413842170
  H           1.41730127363697      0.51300397090401      3.14042205764800
  H          -0.78236616845737      2.63961282983569      3.42673190269692
  H           1.46393928770669      3.73372974580817      2.51409095820826
  H           0.15825558350654      3.45271747768349      1.35091208911035
  C           2.58082492414035     -1.98087119529464      1.26766478081697
  H           3.22698541708223     -2.25318458563279      2.09950378595869
  H           3.07926546834195     -2.21819092171803      0.32437040793847
  H           1.64288234804435     -2.53905589440132      1.33652325663154
  F          -0.86987615886970      1.86270180198178     -0.34978057365631
  F           0.76514034528300      3.06138332844358     -1.05916002032536
  F           0.48588339084406      1.06190666300964     -1.80780368204147
  F          -1.37162547679886      0.77435342926061      4.92137250779328
  F          -0.60365693554103     -1.01375462260862      3.99953235458187
  F           0.48779992663951     -0.07356456156960      5.59406378683429
