24
Coordinates from ORCA-job NEB E -40.740880920630
  C           0.20367968462287     -0.69452399007129     -0.23295796153293
  C           0.13195955183336      0.34614167716342     -1.18696525455189
  O           1.46789902058153     -1.07087876147411      0.22778692928320
  H          -0.43460456571446     -1.55881940075712     -0.43870117473067
  C          -1.15791713545685      0.53167722317074     -1.95658036115333
  C          -0.41980061833348      0.11552211808954      1.31077835144818
  C          -0.20825074389624      1.50716354155621      1.19802149153484
  C           1.01037358871903      1.88033192240823      0.54707816219675
  O           0.78827676353846      1.45379001139062     -0.95778759884089
  C          -1.81997939783713     -0.35476212896916      1.64884486841632
  H           0.32389260212303     -0.40973127994904      1.90768134967852
  H          -1.06848410351266      2.14379361303201      1.02564069689028
  H           1.88575971075147      1.31421197193878      0.85910102096351
  H           1.21235930538653      2.94016898702644      0.44045818124321
  C           2.16869079677113     -1.87569468699250     -0.69412691708823
  H           1.59940390975585     -2.78002662245104     -0.93861431345086
  H           3.10171584613164     -2.15134546763132     -0.20719442729863
  H           2.38017223297655     -1.32871810574861     -1.61896737625776
  F          -1.76734709764300     -0.66529181772344     -2.21905487159343
  H          -0.97171407141018      1.02830020450216     -2.91357707431463
  H          -1.86447482012389      1.13322017435881     -1.36304389724975
  F          -1.89943144758197     -0.65419748881907      2.98911385646211
  H          -2.09239406687556     -1.27085554038548      1.11500465693696
  H          -2.56978494480601      0.42052384633523      1.45806166300914
