24
Coordinates from ORCA-job NEB_reactant E -40.781060339840
  C           1.41584569600898     -0.18620526806109      0.30297287627150
  C           1.25220659854790      1.12802570902896      0.48513388318062
  O           2.08608402902895     -0.98270528319198      1.17528629937168
  H           1.00877645029261     -0.66427517369795     -0.57983060560724
  C           0.45274688917921      1.93347204451270     -0.50380969304731
  C           0.40225050187645      0.52615069223401      3.60453951808435
  C           0.22131637447158      1.80783537505108      3.34062169951869
  C           1.02988211716056      2.58916774849484      2.34612758109791
  O           1.86336017772902      1.79167715180479      1.52149027081504
  C          -0.39615391874472     -0.25820776789136      4.59326203814186
  H           1.16778425409646     -0.04385585873029      3.09838265997592
  H          -0.54039336789454      2.37993201694516      3.85124175676319
  H           1.71693795776912      3.25722875995342      2.87837849834426
  H           0.35120187165845      3.21006429475297      1.74695313840740
  C           2.37188904133193     -2.28106744880073      0.71148438583606
  H           2.84262654107580     -2.80589779755153      1.54066736923044
  H           3.06116026622514     -2.25660109074856     -0.13881114076278
  H           1.45844211816339     -2.80922486018332      0.41748876987468
  F          -0.88615884800583      1.99073451745983     -0.15552375421520
  H           0.48647812012996      1.48142315625413     -1.49843689156315
  H           0.80741948518909      2.96805555526105     -0.54734076596471
  F          -1.31666664607120      0.51474788254372      5.25766906537648
  H           0.25553244651438     -0.69874808698896      5.35848019524835
  H          -0.95876815573268     -1.05852626845089      4.09537284562197
