24
Coordinates from ORCA-job NEB_product E -40.790471382060
  C           1.07011947878190     -0.09955228867907      1.57105786462563
  C           1.65352902914314      0.91803233576106      0.59265570508764
  O           2.02584313746610     -1.05184684811922      1.96511591778256
  H           0.20012592342404     -0.59780315850888      1.11306655479169
  C           0.67608868742946      1.59244235432083     -0.35853431155313
  C           0.62757253464450      0.66579905402504      2.84269993231001
  C          -0.41031334306779      1.70550754266051      2.54525344529075
  C          -0.24574885310421      2.99595341374797      2.76670125493208
  O           2.81905348785036      1.20794182048949      0.56700676449935
  C           0.07907935301910     -0.34752531749600      3.85258783154766
  H           1.51867718938710      1.13066184680130      3.27545988742923
  H          -1.34211948985671      1.32705266446430      2.14616778975349
  H           0.67209075122355      3.38965291282311      3.17169176827752
  H          -1.02502573964763      3.71033554902897      2.56361275622022
  C           2.41367858950851     -1.93844981592550      0.94144725856334
  H           1.54336606906636     -2.45540277467132      0.51814877726831
  H           3.07640183892270     -2.66345260483112      1.40859506937195
  H           2.95064159332484     -1.42304425579601      0.13925100835199
  F          -0.54891106439036      0.98547608493435     -0.39825043183775
  H           1.08295241259912      1.58320324116364     -1.37552794872218
  H           0.51929642914186      2.62811126064807     -0.03542583198373
  F          -0.17935235886163      0.27452964047144      5.04657423877062
  H           0.81381899977556     -1.13248094076830      4.04842497771102
  H          -0.86666465577988     -0.78044171654465      3.50911972151174
