16
Coordinates from ORCA-job NEB E -30.463675426760
  C           0.00644413497365     -0.66423885999740      1.29675612770979
  C          -1.26768748495947     -0.13042370137593      1.22726000051309
  F           1.00534558793132      0.08149914921344      1.83117042645138
  H           0.16196158500526     -1.71595670988324      1.50546107360886
  Cl         -2.49723486477090     -1.38505647464021      0.88131887933298
  C           0.56779162501103     -0.41736261619500     -0.72067892895143
  C           0.28148801137679      0.94979486334712     -0.80593057169104
  C          -1.03175105436820      1.40613356872694     -0.75348021140165
  O          -1.54651282799434      1.04978268742048      0.94634104482835
  N           1.85910088082243     -0.86482658588578     -0.78712554990208
  H          -0.16658872031254     -1.12522990424561     -1.08877987536670
  H           1.08106420186650      1.64000666520794     -0.57606076853313
  H          -1.81087674137252      0.81114783807172     -1.21107119519687
  H          -1.21282976039833      2.46912062002817     -0.75657133548110
  H           2.55336686250465     -0.25975837996761     -0.37334764461637
  H           2.01691856468466     -1.84463215982504     -0.61526147130407
