16
Coordinates from ORCA-job NEB_product E -30.492953450450
  C           2.95565538692659     -1.13051656413162     -1.41225400029494
  C           1.54693469066273     -0.74741456197184     -1.04650202364317
  F           3.81897574526504     -0.44256339032203     -0.59572189501610
  H           3.13313002748930     -2.19849254375962     -1.23862099486873
  Cl          0.38705214687822     -1.80181419312409     -1.85843055599440
  C           3.26390799448792     -0.79112284540964     -2.89241335079916
  C           3.09279918669953      0.68924572952887     -3.11920536485061
  C           2.24066255939631      1.20448231184948     -3.98427279873813
  O           1.18219889670153      0.12759240045047     -0.34395186522301
  N           4.60080770918895     -1.28676474090783     -3.17672695578057
  H           2.56027329200097     -1.35314848203836     -3.51621867927641
  H           3.74362079397302      1.32001817332062     -2.52851704090518
  H           1.58732681180539      0.58307183225383     -4.57529660978082
  H           2.15721063510183      2.26677478809696     -4.13494741506403
  H           5.28106422279137     -0.80861053441232     -2.59394319172478
  H           4.83907990063132     -1.11323737942289     -4.14627725803995
