23
Coordinates from ORCA-job NEB_product E -44.623021795090
  C           2.97200123139043      1.00805492233198      0.82602096191591
  C           2.11695133395139      2.19574934474776      0.40006003838467
  F           2.09785200600374     -0.02889967391688      1.08291535076360
  H           3.61610864549336      0.66473205247350      0.00999159589434
  C           2.29731092238239      2.64003830002404     -1.06721466648134
  C           3.79362879272543      1.28241887648843      2.10628698630643
  C           2.90818770092895      1.79562931182643      3.20776512060057
  C           2.38227185757514      1.02135537434828      4.13771007839494
  O           1.30196254359794      2.72145299826458      1.09342451808269
  C           4.95958888990625      2.24372068760687      1.84735652812693
  H           4.19023830444057      0.30516883864866      2.40440199625562
  H           2.71436223176288      2.85854365997369      3.19907318611641
  H           1.74715663487040      1.41701429162183      4.91080096703271
  H           2.55633962165824     -0.04194846852372      4.15750850525408
  Cl          3.99552773117324      2.94358787693318     -1.45996146474135
  Cl          1.69032213537770      1.28585570935995     -2.05774861173355
  Cl          1.35112555353732      4.09413861472548     -1.39724652037375
  C           6.10520359526167      1.60929582363970      1.06753330058831
  H           5.33830011521572      2.56719203594683      2.81925481626400
  H           4.59634440958913      3.13035859376922      1.32392365795722
  H           5.79901232548501      1.32061256577189      0.06607971044082
  H           6.92494199178206      2.31688585172526      0.97461469832494
  H           6.47336142589106      0.72674241221303      1.58554924662581
