20
Coordinates from ORCA-job NEB E -45.011722907690
  C           1.05100385076395      0.39201612907837     -0.52807503597633
  C           0.39270495427501      1.57796860704283     -0.86138483323246
  C           0.96938606440509     -0.73324769769193     -1.53608329096607
  H           2.03851146873504      0.49589546893131     -0.09053692257427
  Br          0.99101577843144      3.17890707582595      0.08110977106318
  C          -0.12764466918904     -0.14570253571140      0.94465823054424
  C          -1.39929615783414     -0.09502577199370      0.36793922322688
  C          -1.86017502265716      1.16335540550109     -0.12070503487153
  O          -0.81184169287559      1.59555322173150     -1.27072535336610
  C           0.34208806087598     -1.43587236255123      1.56584506453099
  H           0.15873769553467      0.68825913719136      1.58285243531633
  H          -1.82537557735318     -0.99645293839296     -0.04358121908735
  H          -1.76848552254319      2.00870657019118      0.55946387867973
  H          -2.80494958747969      1.15731936751422     -0.65037269489914
  F           1.83248167996616     -0.45101568559795     -2.56684358077634
  H          -0.02993641274887     -0.81882065168053     -1.97258167748283
  H           1.29693726267610     -1.68456292358518     -1.11205772308013
  Cl         -0.37521947555690     -1.51579042082291      3.21022633162977
  Cl         -0.17940471087303     -2.88703301190199      0.68934950740597
  Cl          2.10946201344736     -1.49445698307803      1.75150292391547
