20
Coordinates from ORCA-job NEB_reactant E -45.037621942140
  C           1.68655494071900     -0.15534497260019     -0.07094968314438
  C           0.77939621361700     -0.00938165357632      0.88660572028759
  C           2.38749910157204     -1.45026525139189     -0.32795106111056
  H           1.95730409814740      0.67506094620815     -0.70184507793761
  Br         -0.05205566326899      1.71166705221163      1.12683116740825
  C          -0.10606472058552     -2.40144158591182      4.85374768615420
  C          -0.41398167916796     -2.06578713983982      3.61121531473399
  C          -0.03454626740544     -0.76317872244834      2.98935003777090
  O           0.31950658330740     -1.01737777026537      1.63534824368293
  C          -0.49103159532120     -3.66864521950382      5.52657660175456
  H           0.45842075293099     -1.73559136265075      5.49225069753540
  H          -0.97142639706165     -2.72826283777236      2.96570469972903
  H           0.79883633883587     -0.29141960677383      3.52382959800044
  H          -0.90033051903471     -0.08336858033858      3.02035308176836
  F           3.73202985056661     -1.23147350680359     -0.50577939190390
  H           2.02655565601326     -1.91844002484863     -1.25233999010184
  H           2.27408489495885     -2.14273032062861      0.51153500191271
  Cl         -1.50043787009652     -3.28761391581528      6.95617914460905
  Cl         -1.39242224683559     -4.78293115805346      4.49373496730181
  Cl          0.98600852810915     -4.50087436919712      6.09670324154906
