17
Coordinates from ORCA-job NEB_product E -26.314576495030
  C           3.08740929052111     -1.47290562702343     -1.06503509756772
  C           1.63224572758050     -1.20312719457592     -0.79278043053722
  H           3.68778832393754     -0.75382228882108     -0.50701410018033
  H           3.33628655866349     -2.48402936110999     -0.74304850144985
  O           0.83692157283857     -2.12415936440512     -1.35190811075185
  C           3.38494001080580     -1.35732371458604     -2.57222033233735
  C           3.02359844251612      0.02015537564647     -3.06284437196468
  C           2.16850364621052      0.26132132151418     -4.03825754975620
  O           1.19835847153034     -0.27877931666650     -0.16026864768168
  N           4.78928177260339     -1.68719225743048     -2.78573838223108
  H           2.79081178789055     -2.10705856301816     -3.10561596249495
  H           3.54355158332183      0.83292295591376     -2.57084382782915
  H           1.64183525691038     -0.53634990829864     -4.53711302149648
  H           1.95069763277295      1.26069418271946     -4.37503167731202
  H          -0.09402792024441     -1.91680853612231     -1.17420341204912
  H           5.38216112334933     -0.99348134054607     -2.34011432388772
  H           5.00053671879198     -1.68305636319012     -3.77756225047259
