17
Coordinates from ORCA-job NEB_reactant E -26.293447503030
  C           2.51829117178712     -0.60356312159577     -0.32960896390808
  C           1.56552563514627     -1.15516238042366     -1.06863739629391
  H           3.20032316676863      0.12380081768159     -0.71845425840769
  H           2.62492936993159     -0.90524109742422      0.69299741586691
  O           0.72942283256538     -2.09837407719125     -0.57089186134057
  C           3.85734997346594     -1.52722794013323     -3.37684904827483
  C           3.39504169454237     -0.28065208858027     -3.39377114851607
  C           1.98113977712591      0.09879817849870     -3.05882442911022
  O           1.25287261416005     -0.89829829068286     -2.37132276823736
  N           5.11881110613462     -1.91404892402346     -3.78469304012397
  H           3.21579916040946     -2.34739550494105     -3.08702645691970
  H           4.02895141795783      0.54225257013219     -3.69128771087565
  H           1.40379503621793      0.26698535827498     -3.97690689048360
  H           1.97208632729382      1.03082719177963     -2.47636612132994
  H           0.09981144660572     -2.33085259241728     -1.26565153892694
  H           5.78423625212351     -1.16017985017769     -3.87333117783653
  H           5.49531301776384     -2.72726824877635     -3.32397460528185
