20
Coordinates from ORCA-job NEB E -28.670319555340
  C          -0.33100832470738      0.84908143243638     -1.31735946904648
  C          -1.70700635484017      0.81331160421837     -1.25388314397669
  H           0.15286652833692      0.00741674072888     -1.78994488851687
  H           0.15444669233017      1.80027195605061     -1.47688882048803
  Br         -2.59311189457342      2.51809662733320     -0.80462616061645
  C           0.08532283324569      0.34337587790293      0.57293840356531
  C          -0.66472006815431     -0.81662999428404      0.69275908645777
  C          -2.08376134541048     -0.72518002343169      0.56970225800810
  O          -2.36451259993123     -0.23610394739544     -0.95376628202097
  C           1.59254178690948      0.34906928782243      0.65872394915298
  H          -0.34914093157960      1.24594087072056      0.99562668964647
  H          -0.20926451883569     -1.76705972204839      0.46014783543626
  H          -2.56604264525299      0.07243916224977      1.13189160585858
  H          -2.63828336630968     -1.65459644025557      0.61036924679455
  C           2.28673496860349     -0.89261669153043      0.11226125973562
  H           1.85187269377483      0.46315854481326      1.71610363689442
  H           1.97328965372393      1.23395491163742      0.14446459860291
  H           2.04554633864507     -1.76891563069872      0.70792515312188
  H           3.36454257720728     -0.75207782184497      0.14263476902632
  H           1.99968797681808     -1.08293674442455     -0.91907972763568
