20
Coordinates from ORCA-job NEB_product E -28.718438462500
  C           3.56214807020271      0.49866387711489      1.37981581902362
  C           2.14110780186436      0.69638152584709      0.99980630728324
  H           3.97586523396487     -0.27238140237962      0.72692424716200
  H           4.11235909840271      1.43264632702776      1.25058395716336
  Br          1.36660708128755      2.29706804774960      1.86773865358886
  C           3.65849540856798      0.05566928640667      2.85540065520662
  C           2.91357237736045     -1.23292335723845      3.05181020134167
  C           1.98600699716206     -1.41097444712778      3.97266571097694
  O           1.44369932516187      0.05080771630795      0.30226122155481
  C           5.12543012395329     -0.05215768055415      3.30733537288920
  H           3.19006802809004      0.82750849962113      3.47617998475682
  H           3.17371615377216     -2.03613754353353      2.37593529277628
  H           1.70016540146040     -0.62295904722223      4.65062835217591
  H           1.47121094078951     -2.34897627036838      4.08907044403015
  C           5.96276812385218     -1.07672605775103      2.55095958476097
  H           5.12035820615995     -0.31424977838200      4.36742520841979
  H           5.59001029889680      0.93197665713188      3.21180198443947
  H           5.53137254048712     -2.07052186399041      2.63318793234278
  H           6.96427008658927     -1.10942647801614      2.97344156337284
  H           6.05386870197471     -0.81878801064327      1.49882750673466
