20
Coordinates from ORCA-job NEB_reactant E -28.693081464490
  C           1.64750158049494      0.56628223422638      0.02578340103751
  C           1.21706204611800      1.07740256202480      1.16685826993696
  H           2.20718703347152     -0.35035875608913     -0.01840075787937
  H           1.44219409881588      1.05995328055235     -0.90415665419987
  Br          0.23033702200659      2.70853864771338      1.19173903899953
  C           4.35211893408846     -0.52567709439243      3.67568535312290
  C           3.54359758482545     -0.31196050656463      2.65124114159966
  C           2.06271261598562     -0.54108497232023      2.69457399787765
  O           1.32259771741401      0.64577653102909      2.43010065624888
  C           5.83026361210828     -0.31358809367430      3.65195936796751
  H           3.95279479807953     -0.90795319706168      4.60673107361580
  H           3.93100004567301      0.07704317670640      1.71922482659649
  H           1.75112278332117     -0.83916763795733      3.69832298336445
  H           1.76648734108538     -1.32368641502654      1.98222254568366
  C           6.57689973205792     -1.61390404315906      3.94939540825374
  H           6.09191256023003      0.42731144310926      4.41252727250964
  H           6.13617483919676      0.07535740830901      2.67939707780959
  H           6.29364400342331     -2.00262958261813      4.92486135154494
  H           7.65052889806864     -1.44344481177942      3.94454635007573
  H           6.34216275353550     -2.36501017302780      3.19858729583459
