20
Coordinates from ORCA-job NEB_product E -32.750077994030
  C           2.03040371200845     -1.65169172660583     -1.41604632754590
  C           0.69988315337123     -1.67712979741809     -0.65722256310857
  Cl          2.94972171207495     -0.32292734642854     -0.62049942794724
  H           2.61103890578562     -2.56400311049639     -1.26795306652509
  C           0.68193612150148     -2.58054672894478      0.54423615843655
  C           1.85533378884085     -1.32688013820013     -2.88659366953220
  C           3.13283533694297     -1.05486288929415     -3.59561237697453
  C           3.33340749151814      0.01706087222238     -4.33972799149074
  O          -0.23206638741197     -1.01244928167315     -1.02013668932430
  Br          1.00067437118970     -2.92584221808628     -3.68816913477382
  H           1.13162640435763     -0.51876626899553     -3.01315306548974
  H           3.90095631781660     -1.80689271845694     -3.47383472691860
  H           2.57126039749718      0.76734914762950     -4.47297446104161
  H           4.27027256622357      0.18917634252311     -4.83957349549624
  C           0.39415529867134     -4.01430907261778      0.08444426434842
  H          -0.10869659262252     -2.25080089856484      1.21894618953697
  H           1.64295813173002     -2.53636225353971      1.05818141584230
  H          -0.55756985763714     -4.05696808849484     -0.43892810752054
  H           0.34712668356789     -4.67321089921123      0.94705352294347
  H           1.16824244457403     -4.37824292534677     -0.58683644741859
