20
Coordinates from ORCA-job NEB_reactant E -32.739447895690
  C           2.46241365419074     -1.22514578797002     -0.45921913279073
  C           1.53186404965813     -1.92666796862445     -1.10223443030667
  Cl          3.46522412780683      0.06160514333385     -1.05224405329460
  H           2.66779841189206     -1.44505311983895      0.57454051412389
  C           0.75606352731363     -2.98444426893019     -0.35156079010260
  C           3.61068158668061     -2.37109155386318     -3.53188274077653
  C           2.99613193903932     -1.22755112287793     -3.76903200898735
  C           1.60815292703471     -0.91544783017670     -3.29124526215788
  O           1.07929259059387     -1.85294454342914     -2.38014273886569
  Br          5.35609801883143     -2.73696028079927     -4.15396026303821
  H           3.18239986460346     -3.18272337590727     -2.96633765416500
  H           3.46914160398393     -0.44339217567451     -4.34168101156572
  H           0.92240036219107     -0.94966953961891     -4.14728448103860
  H           1.57902944200703      0.09806780337707     -2.87569231114229
  C          -0.55199987898455     -2.40897074357842      0.19031650286714
  H           1.35724823920157     -3.37729280035537      0.46717378993478
  H           0.53173170997368     -3.79385822197723     -1.04717860232676
  H          -0.34959432104373     -1.60312309243169      0.89123466698539
  H          -1.11836767397729     -3.18280921136060      0.70190441394644
  H          -1.15541018099652     -2.01802730929709     -0.62447440729901
