20
Coordinates from ORCA-job NEB E -53.933585687380
  C           1.09071620379264      0.50524960724456      0.27558834778301
  C           0.53300537304794      1.01974178805835      1.45868541027602
  C           1.03562068449543      1.42408591393283     -0.92836725735582
  H           2.06675180300602      0.03594663459510      0.34712002080855
  Cl          1.17262985034850      0.35842008490487      2.95556752293204
  C          -0.17759771725595     -0.96335447629776     -0.00320054444497
  C          -1.41873546015915     -0.31731574935107      0.03447168073287
  C          -1.79044837737639      0.34941432697763      1.23237374703465
  O          -0.64079574215820      1.49760976471194      1.48722526684762
  C           0.18193458124322     -1.79140845615870     -1.21148567176571
  H           0.13608788698165     -1.48165617744592      0.90116440839835
  H          -1.88760397446989     -0.02430485393946     -0.89154807806289
  H          -1.67965514510539     -0.20697621338220      2.15971475883835
  H          -2.69548915517254      0.94177966107562      1.19458288333636
  F           1.66523475436701      2.58006226986608     -0.64977673349893
  F           1.67649117217572      0.90749761516689     -1.98130426471670
  F          -0.18891236911132      1.75634167405343     -1.33639222812131
  Cl         -0.66966420003088     -3.36086921033519     -1.01320357734476
  Cl         -0.33309181560516     -1.09006429603116     -2.75123022001141
  Cl          1.92352164698676     -2.14019990764584     -1.27998547166533
