20
Coordinates from ORCA-job NEB_reactant E -53.966754578380
  C           1.62126716105404      0.12490684761637     -0.14842178534179
  C           0.97193726251348     -0.98729134264084      0.21715060650555
  C           2.04620294518505      0.32764450301162     -1.56430705033387
  H           1.86386101936069      0.90647963960800      0.54621355669345
  Cl          0.49259046160143     -1.18591583842262      1.86352579408143
  C          -0.24934856632305     -5.26489829457187     -1.45345607829589
  C          -0.24818519915503     -3.94154804877608     -1.46335834528768
  C          -0.03032619597392     -3.10716885238066     -0.24271903427922
  O           0.68374962544296     -1.94550198372711     -0.64663226372708
  C          -0.50018961283612     -6.13729483539538     -2.63000424714622
  H          -0.07551404982089     -5.82128674856525     -0.54235560415812
  H          -0.41148792918454     -3.37773254282945     -2.36973658981191
  H           0.53192675488559     -3.65413112291535      0.52249820629297
  H          -1.00251602194268     -2.81301672996140      0.17837379374523
  F           2.92931455067306     -0.59454780338278     -1.98863460483464
  F           1.02182430308137      0.28065470523862     -2.43525817773374
  F           2.63236532690334      1.51928501906209     -1.73141917920231
  Cl         -1.94873305069974     -7.13999495499606     -2.30713742480118
  Cl         -0.76169245141125     -5.25309699171881     -4.13656010708522
  Cl          0.89425366664621     -7.23344462425305     -2.85186146527975
