26
Coordinates from ORCA-job NEB_reactant E -48.349195274480
  C           1.95682917679302      0.31025611424879     -0.52538165736905
  C           3.01427199491326      0.77542576990086     -1.18825159531784
  C           1.18095227212602      1.08201628221090      0.49321673698064
  H           1.64317863294552     -0.70858705675691     -0.69334292683993
  C           3.77068546405705     -0.08324908347432     -2.16778397050069
  C           1.76516102086276      3.07674153487813     -2.92218236890737
  C           3.07603509550030      3.22507166491450     -3.01651757541672
  C           4.05429048902780      2.78032859013831     -1.97360564463524
  O           3.49258806669824      2.03913574641551     -0.91691811477339
  C           0.81758520409116      3.53144203867355     -3.98201376033592
  H           1.28147131827794      2.62120965173797     -2.07227440139264
  H           3.52019493681562      3.68710187944423     -3.88708540232066
  H           4.48880828785842      3.66559819919357     -1.49483007169275
  H           4.87066401480149      2.23811791031756     -2.46917118435280
  C           1.28238606342677      0.42666028688517      1.87041654223155
  H           0.12951037691705      1.11089598584557      0.19229067936410
  H           1.56118406971815      2.10232746177301      0.54474506524800
  H           0.90557638329663     -0.59318983941204      1.83727652634426
  H           0.70054830139968      0.98660897816094      2.59813377440275
  H           2.31834296249614      0.40184614397141      2.19930257969485
  F           3.56426178590782      0.31415358030992     -3.47525366054060
  H           3.43260851258431     -1.11964468628602     -2.10163006991350
  H           4.85221687130755     -0.03091104533188     -1.99455419800271
  F           0.03462948722602      2.53188478738885     -4.42389080127549
  F          -0.02375330380270      4.48105898945569     -3.52318360271791
  F           1.41957251475397      4.05270011539674     -5.05911089796092
