21
Coordinates from ORCA-job NEB E -51.979288021250
  C           0.48599365107883      0.37252039282486      0.84040391623570
  C          -0.84586867409894     -0.05024160894170      0.75895492345759
  C           0.82001194363200      1.82245659124725      0.99643982598888
  H           1.15516578891136     -0.23097248596613      1.44996230858570
  C          -1.19169623790451     -1.38239192533478      1.41516265650693
  C           1.13914875995309     -0.04956832838900     -1.14239106721113
  C          -0.02134083036102     -0.53147833463063     -1.75647621811270
  C          -1.15431095044893      0.26258819091535     -1.82680845659470
  O          -1.69031210999059      0.41099743820225     -0.04659851733332
  O           2.22602361371599     -0.80019462606839     -0.95780516741537
  H           1.39800579702907      0.99362175896608     -1.27315010539956
  H          -0.12802457634413     -1.60624000341653     -1.85661813574294
  H          -2.06667193547374     -0.15490618762116     -2.22358186250593
  H          -1.04782243343017      1.33014870560718     -1.93542018560236
  Cl         -0.05660567999510      2.91419957321134     -0.07813602712907
  Cl          0.39622874115377      2.28540267553974      2.69285472445101
  Cl          2.57023090158711      2.10291366966771      0.80249127822537
  Br         -1.03095289911462     -1.22758958573618      3.35376523869600
  Br         -2.99038603711857     -1.88832037961653      0.94027626103469
  Br          0.01269615228016     -2.82547810678612      0.83775731761903
  H           2.02048701493894     -1.74746742367463     -0.99108270775382
