18
Coordinates from ORCA-job NEB E -33.785605883730
  C           0.62074034929170      0.68849392020340     -1.36794926451311
  C          -0.40013064301227      0.82714775431659     -0.42455831028618
  F           0.29984178952689      0.15459036985931     -2.56370073583913
  H           1.38022370543773      1.45623016695624     -1.46474486794577
  O          -0.13990333202791      1.71768098324114      0.57294539715927
  C           1.49341400880125     -0.92289131624211     -0.52966507154701
  C           0.44334503851435     -1.82426806466833     -0.54448044144908
  C          -0.68932043035825     -1.51192985118557      0.25948750035493
  O          -1.30234003898853     -0.08209971262482     -0.29203401661051
  Br          3.01710792355237     -1.25681050452986     -1.62401026676863
  H           1.78877337595039     -0.42920494625379      0.38869851187329
  H           0.30544036364777     -2.44505783343859     -1.41672805138354
  H          -0.48678740236749     -1.24529465269594      1.29330007996107
  H          -1.54737824680155     -2.16311943612748      0.15447531666257
  C          -1.03089303418906      1.74481804486533      1.67735438533608
  H          -1.19386653626901      2.79163955231713      1.92941364131033
  H          -0.57940926638927      1.23172379363464      2.53030845905461
  H          -1.97885762431911      1.26835173237271      1.42188773463083
