18
Coordinates from ORCA-job NEB_product E -33.842684983280
  C           3.26027893308392     -0.49872889995915      0.55087164558027
  C           2.09654114268163      0.01414127846933      1.40632722347477
  F           2.82986151008364     -0.67155085913484     -0.73360596288070
  H           4.06562609166272      0.24694584056283      0.52886208492638
  O           2.56144952789023      0.42987453108364      2.58565868392969
  C           3.74273797985055     -1.82194399712351      1.14507605178196
  C           2.70377751951665     -2.88459083437107      1.05756682308944
  C           2.29881457320560     -3.58693471510591      2.09932482167324
  O           0.94680344913585      0.01724096842361      1.08109412548991
  Br          5.36755089366470     -2.41070450143834      0.17470087771666
  H           4.07270519620222     -1.65154772473119      2.17180103681296
  H           2.29663382116521     -3.04903483727553      0.06982737637270
  H           2.70655234245048     -3.43274475132432      3.08574357251166
  H           1.54211709042269     -4.34534463045874      2.00512863653761
  C           1.58385964624795      0.91179269512282      3.50585262418257
  H           2.12823592579287      1.18949134465718      4.40403444684665
  H           0.85297168712080      0.13052749534447      3.72073909587729
  H           1.06618266982231      1.77541159725872      3.08599683607695
