23
Coordinates from ORCA-job NEB_reactant E -51.657442806790
  C           1.44989372039363     -0.49700048190298      0.12016203680926
  C           2.11082307310116     -1.36847285429313      0.89595495697532
  C           1.89176918214386      0.17615888272486     -1.12024991952778
  H           0.43341202599925     -0.26182476380359      0.40314995611702
  C           3.53748380263207     -1.86548076329875      0.68401927724585
  C          -0.24417297521523     -1.87771635450419      4.88536061241660
  C           0.10876405485236     -2.41884153627365      3.73132361216663
  C           0.32662669394210     -1.63870952905904      2.47281312497797
  O           1.64345845379496     -1.93492535147294      2.01036768851697
  C          -0.47567272613546     -2.64366405061945      6.14016087147780
  H          -0.39859849618988     -0.80814100903985      4.95609053749657
  H           0.27705166342369     -3.48167210328863      3.63945076762896
  H           0.23018343661058     -0.56213204852930      2.65894516606747
  H          -0.39956475020375     -1.94178395294880      1.70482384223454
  Br          0.64885148433016      1.63433504632185     -1.51980527485155
  Br          3.67224170875406      0.98400694455355     -1.02817850770776
  Br          1.82594577636896     -1.05018024845068     -2.68137929173897
  F           4.43210852873270     -1.05320011796254      1.26125350399439
  F           3.70207803892130     -3.07233561333959      1.22357045678209
  F           3.87562552744785     -1.97592501967956     -0.60347241200974
  H           0.18672628762050     -2.27975108024084      6.92434033362623
  H          -0.29852565477382     -3.70494515692760      5.99104245199609
  H          -1.49940885655104     -2.49839883796516      6.48305620930603
