23
Coordinates from ORCA-job NEB_product E -51.647544660750
  C           1.40055921989491     -0.78717168649902      1.77817960409761
  C           2.80540827171342     -0.66389237702705      2.34574265549945
  C           1.28571156904656     -1.21722697413745      0.31721963942343
  H           1.05001866956367      0.25648173368005      1.78642481659970
  C           3.89152117098421     -1.76869495294079      2.17425784464589
  C           0.50541410576270     -1.50968605656238      2.84511407232416
  C          -0.90265253017956     -1.66999818128650      2.34141245255379
  C          -1.88722490041137     -0.85296052832418      2.66630710716243
  O           3.11258210271434      0.27815595850426      3.01928310387956
  C           1.04966259910424     -2.84369678662296      3.35489143269770
  H           0.48495327905685     -0.81433757059910      3.69280997444567
  H          -1.08875067320590     -2.53035959411337      1.71432797652762
  H          -1.73194581043236      0.00393968208237      3.30157975934034
  H          -2.88878234912909     -1.00567003173684      2.30550143956514
  Br         -0.26499361516436     -0.32238842479455     -0.49031307863835
  Br          2.87008987518100     -0.55040517536580     -0.66030453313868
  Br          1.06968383606264     -3.09596709189663     -0.09899518345002
  F           4.98254209469385     -1.25874718911379      1.60239583099500
  F           4.25047488632694     -2.21826208754213      3.38303737385450
  F           3.52550957722900     -2.83357009243779      1.46038029272327
  H           1.96389086724523     -2.70314205041698      3.92598458534857
  H           1.23578159675022     -3.55798768464357      2.55912133758040
  H           0.30914615719286     -3.27861283820580      4.02294149596281
