14
Coordinates from ORCA-job NEB E -22.048111757010
  C           1.12803116533830     -0.06369655014587     -0.89729073894255
  C           0.68379446165126      1.22650932257526     -0.61432693158214
  H           0.63886071313797     -0.59093357095308     -1.70500198407999
  H           2.19263383015750     -0.24996663928704     -0.84001464133986
  H           1.32085660909446      1.90044091927046     -0.03506133537010
  C           0.32618701233450     -0.99000549905051      0.53828887286398
  C          -1.02699743478893     -0.67598550849996      0.42592470940014
  C          -1.37247082602465      0.70864268399712      0.53208244878250
  O          -0.59741924417909      1.47493027037337     -0.63080288541663
  I           0.88737280338527     -3.03756628246540      0.30551423897920
  H           0.89523277459874     -0.56403878272892      1.35378318653827
  H          -1.65983960308728     -1.30630687152727     -0.18163463182901
  H          -1.00592971489123      1.22117412119235      1.42007207301587
  H          -2.41031254672682      0.94680238724949      0.32846761898033
