14
Coordinates from ORCA-job NEB_reactant E -22.079778333530
  C           2.01949446284839     -0.01393150057100      0.10494116106794
  C           1.29068627482442     -0.15306713184032      1.19887513493106
  H           2.22886173474455     -0.85212175315253     -0.53359646098553
  H           2.41925814186011      0.94260338329460     -0.17043564969994
  H           1.07007177497601      0.68277067033056      1.85541110843264
  C          -0.40140878177393     -3.38746526682467      4.12700480328878
  C          -0.50565491108592     -2.74424090945860      2.98187455399711
  C           0.02430500026296     -1.35986232694797      2.76945485096181
  O           0.76880368425565     -1.35397365512233      1.57087756189855
  I          -1.17888088079101     -5.31419615926269      4.43342334965765
  H           0.06887022160382     -2.97528463040090      5.00387262765227
  H          -0.97194600254155     -3.18904360767930      2.11547718140536
  H           0.64920848722356     -1.04707958931838      3.61874532580277
  H          -0.82476920640707     -0.66020752304647      2.68927445158953
