19
Coordinates from ORCA-job NEB E -28.633178395010
  C           0.40378402480765      0.78996911916274      0.22820711585802
  C          -0.99890662139475      0.72499640275071      0.21015260459380
  I           1.29479524370796      1.70131517178864     -1.75183152876891
  H           0.81452255354327      1.50346624322329      0.93186063272983
  C          -1.86524424161281      1.62536582931646      1.02451688080619
  C           1.04679767848165     -0.64915605344536      0.40693595814877
  C           0.44644634649929     -1.51418859252293     -0.63004474957448
  C          -0.91914094758521     -1.23404664114490     -1.12085985724509
  O          -1.65399669434720     -0.20717200871138     -0.49855002719597
  N           2.48534870747010     -0.55273773892672      0.40163154691837
  H           0.75873133204000     -0.93688139462536      1.42937430499263
  H           1.12346269050127     -1.87741977669949     -1.39259939609875
  H          -1.56798098034630     -2.11523305898049     -1.02667865224290
  H          -0.87370253148946     -0.99553530713049     -2.19428946172643
  H          -1.55289229220552      1.62436491594077      2.06900916971832
  H          -2.89613455471224      1.29041414014238      0.95415963491239
  H          -1.80232197573276      2.65097397305420      0.65831307281023
  H           2.84516643647547     -0.47259047849253     -0.54333044185829
  H           2.91126582589958     -1.35590474469953      0.84402319322229
