19
Coordinates from ORCA-job NEB_product E -28.690456870380
  C           3.11334930577612     -1.08452039404013      1.26693522736305
  C           1.62390539423328     -0.87605556338731      1.09457445850641
  I           4.14326013203571     -0.15569549706704     -0.39150452425217
  H           3.48758336839325     -0.59391579319002      2.16548315689952
  C           0.86804921725453     -0.78206246395230      2.39358241325576
  C           3.42706637121742     -2.58907220419455      1.37262732994547
  C           3.01958020008895     -3.33015669311903      0.12723029484291
  C           2.00173465481143     -4.16643714405764      0.06562818318643
  O           1.10098412640192     -0.79759346658974      0.01737249590507
  N           4.82566137592677     -2.75005796195443      1.73273828037924
  H           2.83901525614521     -2.97070640953908      2.22004455853786
  H           3.63692864052251     -3.14722132183586     -0.74249831588509
  H           1.37390663158528     -4.36421547888917      0.92011929653922
  H           1.74616294395769     -4.68332802261758     -0.84284852977543
  H           1.24255797981387     -1.49324136251322      3.12506596528084
  H          -0.19240471380631     -0.94229036387522      2.21727910893610
  H           1.00587354741913      0.22143226943679      2.79584536140212
  H           5.42352395647909     -2.41811699120920      0.98058315255796
  H           5.03926161174412     -3.72834513740526      1.88874208637473
