21
Coordinates from ORCA-job NEB E -44.468082112410
  C           0.87993332136193      0.06182636086442     -0.15993101961763
  C          -0.12846418379820      0.85053052715183     -0.96151098328147
  C           1.59221015843495     -1.10754566942616     -0.75537719177980
  H           1.66557410296005      0.81659896540315      0.01629297119195
  C          -0.12702223542146      0.93937460315496     -2.30758009304785
  C           0.38567207249338     -0.39765283539988      1.26025208596233
  C          -1.05891642601147      0.03857697758051      1.49925294749220
  C          -1.16405865797460      1.49664243800450      1.07532722816257
  O          -1.06833901032465      1.58752002539727     -0.31736756783166
  C           0.45788848401614     -1.83837118539067      1.43649741831927
  H           1.02308636324004      0.04810529222060      2.03750364510679
  H          -1.35694998904249     -0.13058088066741      2.53384270151151
  H          -0.35442614559710      2.07322436204468      1.55368561638195
  H          -2.12255762158141      1.94571475023048      1.33890759579602
  Br          1.34245340956820     -2.01496317765065     -2.32855317970300
  Br          3.21088065096407     -1.50632439015410      0.11960624074359
  Br         -2.28276471898412     -1.03639654013388      0.39319098749549
  F          -1.20792072689335     -1.00221831759055     -2.41998878323132
  H           0.64427324055142      0.51501794589850     -2.91664927731001
  H          -0.82291502834908      1.60884120739059     -2.77990816479508
  N           0.49236294038777     -2.94792045892822      1.68250682243414
