21
Coordinates from ORCA-job NEB_product E -44.553952116920
  C           2.19390980308823      0.61865300589893      1.63427739128698
  C           1.24364857145943      1.39589057255454      0.70762970060167
  C           2.30635861782200     -0.82327507220500      1.16677267082193
  H           3.20050695751420      1.05317011232391      1.56791716547702
  C           1.89061347909563      2.61852360288420      0.08475946830114
  C           1.68469334701461      0.83846238549361      3.09411411869401
  C           0.59858542854258     -0.10200472985995      3.54887900818081
  C          -0.67060300504367      0.25216723368361      3.61789132696313
  O           0.10712828331361      1.07171597614834      0.53198670706273
  C           2.80226730324520      0.78267885833349      4.01619463202699
  H           1.29579663724214      1.86618191713462      3.13829892324683
  H           0.92181353648206     -1.08794964313800      3.85327397746171
  H          -1.01131378571687      1.23266810321999      3.32860791901452
  H          -1.42502132128893     -0.44028616215689      3.94605329719837
  Br          0.62976328168814     -1.76381625202266      0.92307138997173
  Br          3.20110929002048     -0.79016553300333     -0.59315737129020
  Br          3.43574750272795     -1.88087867120123      2.36862719333475
  F           0.97087355558513      3.38641779356055     -0.55694824420181
  H           2.63819183121564      2.30188921184287     -0.65532580109415
  H           2.36987783011848      3.24158559744462      0.85031602492213
  N           3.67475285587396      0.77277169306380      4.75246050201972
