22
Coordinates from ORCA-job NEB E -51.876754161190
  C          -0.40992995329450      0.75412672957510      0.38720513581859
  C           0.35842357907897     -0.03516390798899      1.28872025401277
  C           0.03835214467419      2.13668494539728     -0.02708662367680
  H          -1.47631064941096      0.74853334925045      0.60860718398373
  C           1.86265805308153      0.08347957682688      1.40717183224036
  C          -0.46473007216312     -0.41068380002983     -1.07326065722620
  C          -0.96344743646254     -1.61946780696011     -0.54723716932072
  C          -0.21337355587592     -2.27198066943769      0.45910517082950
  O          -0.18400927075780     -1.14945000134941      1.66095784113549
  N          -1.35630030489675      0.20513990210842     -2.05866018622419
  H           0.56884224351377     -0.35886580572329     -1.40591961552520
  H          -2.03549461127669     -1.76072818972524     -0.58244829292161
  H           0.84771308496432     -2.40927572295641      0.27759292688608
  H          -0.67624059405613     -3.12195915170472      0.94348170025065
  Cl          1.49545640920516      2.13909218552496     -1.04113531805142
  Cl         -1.26239403231830      2.98236664967015     -0.91378411611898
  Cl          0.37137577246696      3.09524982745576      1.45322884978094
  F           2.46137336086060     -0.46699103714648      0.28588602465173
  H           2.20811161303525     -0.50226450191717      2.26365005368011
  H           2.20526725145967      1.11609400420022      1.47807422976006
  O          -2.53422950428515      0.22158782897889     -1.80057470548562
  O          -0.84111352754256      0.62447559595123     -3.06357451847928
