22
Coordinates from ORCA-job NEB_product E -51.908686888470
  C           1.47736064388594     -1.24709240271671     -1.50123246305268
  C           2.74560029536442     -2.13857352515934     -1.32331204843743
  C           1.65751325277011      0.26185815214295     -1.63430135312303
  H           0.91204883319745     -1.39931014555255     -0.57162299382530
  C           4.11917609843638     -1.57398344564485     -1.60432830162003
  C           0.61717777959817     -1.91955868129655     -2.60731748203524
  C          -0.81024329682200     -1.46985688163428     -2.68664713049187
  C          -1.74262056851900     -1.90674564914636     -1.86060786854861
  O           2.57244211910126     -3.26685059860289     -0.96424505984390
  N           1.31043908946008     -1.80415750383017     -3.92622588727377
  H           0.64873248930905     -2.99190110249159     -2.36352866406966
  H          -1.04386874780049     -0.78920471178766     -3.49156249275887
  H          -1.52372533475261     -2.59934354494688     -1.06406881465980
  H          -2.76260562820928     -1.57810629288166     -1.94263246906743
  Cl          2.54681579976054      0.75698492254425     -3.09175387031511
  Cl          0.07321781239853      1.09225405917209     -1.65400442461729
  Cl          2.51229852271983      0.88296154428373     -0.18593111130230
  F           5.06866926479925     -2.43589403899533     -1.13989945394567
  H           4.28956895868152     -0.61052120682429     -1.11781397750085
  H           4.25538042038827     -1.48986429131391     -2.68952286547050
  O           0.70156946702025     -1.37645767500677     -4.86625111219012
  O           2.45455272921236     -2.19213698031122     -3.94219015585053
