14
Coordinates from ORCA-job NEB E -30.509070394050
  C          -1.19536497144368     -0.83088543440340     -0.38734166186301
  C          -0.14036038648541     -1.45787023962246      0.25869701998842
  I          -1.15858496261994     -0.81896833856752     -2.49401495152926
  H          -2.19570125549145     -0.95151071866491      0.00590155712778
  F          -0.41052431445737     -1.78396911780159      1.57137024977732
  C          -0.67173687703729      1.05411260759796      0.15839363398833
  C           0.64637280681861      1.12843779937994     -0.26128378394212
  C           1.59486233858541      0.28246677117349      0.34988859729474
  O           1.06838258805471     -1.30245015061317     -0.03302050206435
  F          -1.59310320199502      1.78714589615825     -0.48038860682444
  H          -0.93788365599889      0.93120940718944      1.20502999784580
  H           0.83234342007977      1.50228415377167     -1.25783453954267
  H           1.56899288875174      0.19022233761595      1.43030370330357
  H           2.59230558323881      0.26977502678636     -0.06570071356011
