14
Coordinates from ORCA-job NEB_reactant E -30.540681223920
  C           1.20723882159717      0.21143924208482     -0.17871320034921
  C           2.23389292130726      0.90196748143882      0.29419454344563
  I          -0.69343949704476      0.50613784351187      0.62725100106712
  H           1.30691338066321     -0.52476630089681     -0.95113188287370
  F           3.45920971161134      0.71536374346191     -0.24257823945439
  C           2.85271006354663      4.95102572423379      0.52016737133343
  C           3.27182666546053      3.70979774834469      0.36401016653061
  C           3.23716265921502      2.70255674717551      1.47202752202956
  O           2.17188413261137      1.76732224225810      1.30149115304199
  F           2.87714941847739      5.83403770186454     -0.48186347682434
  H           2.47593059892877      5.38347382513675      1.43648610288720
  H           3.62357145151598      3.37346649212267     -0.60098960219591
  H           3.02126966810902      3.17874231946865      2.42958647132926
  H           4.19368000400108      2.16973518979469      1.53116207003273
