18
Coordinates from ORCA-job NEB E -38.139833127100
  C           0.63419194624836      0.05294841386922     -0.07483573605657
  C           0.39084553908828     -1.03129322619302     -0.97483793191015
  I           0.23682864907232      0.06262523724170      3.82714149683531
  H           1.17085449227766     -0.12184355273048      0.84446985800944
  C           0.97681728260054     -2.38248827576636     -0.51873359849627
  C           0.19342279794377      1.41588773244385     -0.42302355104682
  C          -1.03707247847785      1.09172917375334      0.41256429657071
  C          -2.15990754379682      0.58404938580235     -0.10911815197326
  O          -0.22871939219494     -0.94678944625541     -2.02392001333974
  C           0.97799980659944      2.50597743345336      0.08699665667999
  H          -0.03875629775141      1.53805830129318     -1.48324996539779
  H          -0.95585315109930      1.34100064044723      1.46272039238854
  H          -2.20947398468460      0.24239300371701     -1.13143271851465
  H          -3.04653434038202      0.47403019001641      0.49095698088811
  F           2.28316398477077     -2.25124030145754     -0.19283795556784
  F           0.33889129309984     -2.78977820151798      0.60503872271412
  H           0.87502595374690     -3.16068974651489     -1.28778166928443
  N           1.59827544293905      3.37542323839799      0.48988288750130
