18
Coordinates from ORCA-job NEB_product E -38.205984040530
  C           1.29520435498355      1.25871861903627     -0.94012834593357
  C           1.55022006591243      0.51748792921160     -2.23353404745819
  I           2.81533907191690      0.96588624779683      0.56481556237669
  H           0.37798173511619      0.83698730341004     -0.51745612913959
  C           3.00112655260300      0.23433024588244     -2.66599341770940
  C           1.00500729913174      2.75054879194802     -1.22702821814998
  C           0.36355674859304      3.41142494396339     -0.03186448160088
  C          -0.85473000283562      3.91494430833644     -0.04960049754949
  O           0.63442937458003      0.14712123358146     -2.91201276972740
  C           2.18914313434810      3.51097231024271     -1.57304990529863
  H           0.31313394272040      2.78827080715588     -2.08068730390818
  H           0.97907565708648      3.45513636509745      0.85636852544938
  H          -1.47599999495246      3.88707555887164     -0.93027655404747
  H          -1.28053133104502      4.38163302157869      0.82124648855807
  F           3.03259950102139     -0.04250528574344     -3.98107348030726
  F           3.81659746832870      1.28564136312961     -2.45892564153796
  H           3.40614338780587     -0.63680582265953     -2.12068406597587
  N           3.09830303468530      4.15833205916051     -1.81111571804026
