18
Coordinates from ORCA-job NEB_reactant E -38.212349905650
  C           1.93785744949852      0.71131079131607     -0.21070973895684
  C           1.38866011256112      0.60563044424278     -1.41671557562803
  I           1.48995224198987      1.96659428913817      1.40762625963512
  H           2.73378704756775      0.02963954540564      0.03676496856934
  C           1.95370171306071     -0.47785438174121     -2.32622817452118
  C           0.87030665304034      4.69841877997404     -0.98188823290253
  C           0.90436510787756      3.59367297951094     -1.72381234194379
  C          -0.10802824896586      2.49561800058660     -1.63365271064353
  O           0.40209250785258      1.24963801535530     -2.08030416481844
  C           1.82056720524685      5.72833683960659     -1.12630362339151
  H           0.11037868962980      4.86334955116101     -0.22908516225045
  H           1.67984071954532      3.44951762142623     -2.46506129842590
  H          -0.92381018152173      2.69951501121733     -2.33866220101035
  H          -0.53907712514603      2.41879942989990     -0.63035187035885
  F           3.21385405500908     -0.16649247420916     -2.71477298828978
  F           2.04277114578833     -1.66533923489406     -1.68887598881966
  H           1.33437023240515     -0.60453810324827     -3.22532842907751
  N           2.58651067456064      6.57328289525207     -1.23933872716610
