22
Coordinates from ORCA-job NEB_reactant E -51.382339742740
  C           2.09397611787961     -0.26211796537880      0.05306746553183
  C           1.59976904652743     -1.49795051935329     -0.15170753467880
  N           2.03675966508969      0.74117859071682     -0.86688480827670
  H           2.62061439423659     -0.03637720118019      0.96888369558251
  C           1.72767068871165     -2.57128263754926      0.86630441826712
  C           3.60431295622340     -3.72218622262352     -2.45801942762568
  C           2.30230725508227     -3.48491500311859     -2.41396756450251
  C           1.71720602631742     -2.10697353247867     -2.45476874542699
  O           0.91457745426904     -1.82543642302690     -1.30639041789681
  C           4.22764533697932     -5.07147366784794     -2.42603193258681
  H           4.32009056603021     -2.91746304798005     -2.55957915598710
  H           1.58858056979925     -4.28958474050181     -2.31089958572779
  H           1.01931191743511     -2.03293670487099     -3.29434130112200
  H           2.50765029863828     -1.35518086306738     -2.56137266617563
  H           1.35677752093825      0.62778086700572     -1.60377370319434
  H           2.15655230723909      1.68125118612357     -0.53031495642755
  Br          1.33022485397361     -1.93300236760198      2.67336941251550
  Br          0.53659012058955     -4.03743202690632      0.48547747338042
  Br          3.59661830183806     -3.31002946329376      0.94932495479326
  Cl          4.71669399928282     -5.51129938971955     -4.09526286064291
  Cl          5.69424199215006     -5.04139506751847     -1.41164293506058
  Cl          3.14872861076927     -6.33157379982862     -1.81256982473844
