21
Coordinates from ORCA-job NEB E -33.022578251800
  C          -0.23838140952837     -1.54052610397982     -0.54307787651924
  C          -1.27358175953952     -0.32933995242632      2.48972583941564
  C          -1.26189128316933     -2.22051315711457      0.24347892608655
  H          -0.64491153392537     -1.25595836925286     -1.53331437899701
  Cl          0.32655317688110     -0.36889924593874      3.16113780969535
  C           0.10310826504321      1.28179693810935     -1.10473302033064
  C           0.31228626169455      1.09289382241224      0.20117462658263
  C          -0.62172156635224      1.64052238747984      1.22692719345552
  O          -1.53630072707049      0.61897291281514      1.71384320661265
  O           0.88765331367642      0.95223662465581     -2.13426172327380
  H          -0.77763861027440      1.80550024252659     -1.45888531916522
  H           1.17336796197001      0.56126985210320      0.56826263879289
  H          -1.27335530395773      2.40921570780782      0.80879239915472
  H          -0.07063010904925      2.03113018053486      2.08775705800658
  H          -1.28804398914383     -1.80813469902277      1.26952614233459
  H          -0.86509431335272     -3.23234724763428      0.38072219169387
  H          -2.28478853125507     -2.26887335492775     -0.14382761092682
  C           2.10288505739412      0.28284403278755     -1.84936990963275
  H           2.56389223878992      0.07938529042005     -2.81351143841729
  H           1.90459452548738     -0.65080113056190     -1.31813756789656
  H           2.76199833568163      0.91962526920654     -1.25222918667166
