17
Coordinates from ORCA-job NEB E -37.716591513200
  C           1.02004545553324      0.44798634756619     -0.28531416897537
  C           0.15309651553436      1.47981886508005      0.09035993037860
  C           0.92715825162473     -0.05871376803079     -1.71564641033247
  H           2.06061820720353      0.53969135885039      0.01166810987581
  Cl          0.68450046467375      2.46833817742097      1.45653804951413
  C           0.29472563882266     -0.93035604967027      0.90175877185933
  C          -1.06334053675614     -0.93997712072348      0.59988827391578
  C          -1.79873519112946      0.25781868049228      0.83110972183291
  O          -1.10188186642225      1.40101502833823     -0.10852216571727
  I           1.40442448723596     -2.72155031614454      0.64698556874306
  H           0.62353400915526     -0.42942310046691      1.80462740358668
  H          -1.44855821644728     -1.65351262087493     -0.11178262263355
  H          -1.67301974416727      0.72783322286782      1.80423766379022
  H          -2.82554950445210      0.26377389966569      0.48759961311572
  F           1.95730110027647     -0.88776491842110     -1.98934603326148
  F          -0.19841128738058     -0.74488353270428     -1.99390389513467
  H           0.98409221669514      0.77990584675469     -2.43025781055746
