17
Coordinates from ORCA-job NEB_product E -37.763684291610
  C           1.77328721677127     -1.35751210819144      1.18165568535268
  C           1.18125773799583      0.02815336792566      1.34291130058783
  C           1.55475921618114     -1.81887871294706     -0.27119405247026
  H           2.85681979842477     -1.27137916238689      1.32432462233170
  Cl          1.90692555825264      1.18863179393373      0.23443862916806
  C           1.17142990165980     -2.28746587839245      2.24819314518231
  C          -0.14969618485947     -2.87190111369686      1.89376025080631
  C          -1.25128018270757     -2.59997648711278      2.56935975620253
  O           0.35341558231558      0.37052607871858      2.11347029761881
  I           2.58214112486634     -3.89073476098792      2.71221510015609
  H           1.09227620021741     -1.72297484819124      3.17890241937306
  H          -0.16727883895931     -3.55317731166941      1.05508640091390
  H          -1.25191300455701     -1.92646587238876      3.41047747875226
  H          -2.19780948173147     -3.02970832615359      2.29334619228420
  F           1.85887719245568     -3.12093688288899     -0.42411792267998
  F           0.26126500445765     -1.68137911190245     -0.64026177495454
  H           2.16692315921670     -1.24112066366812     -0.98036752862496
