21
Coordinates from ORCA-job NEB_reactant E -54.427957398440
  C           1.61189142606244      0.09734046506827     -0.09780418357178
  C           0.97431003957038     -0.71983137172725      0.76380047182043
  C           2.06642298702390     -0.36193353778223     -1.43159671146556
  H           1.80636219740616      1.12111033613620      0.17426461568176
  C           0.57274763094340     -0.19352675460986      2.02522805432483
  C          -0.24414241139738     -5.26585401499566      1.51709384866288
  C          -0.16376127534790     -4.14817523154006      0.81564909420158
  C           0.03321291310886     -2.79485266254619      1.41557462769657
  O           0.71650186402224     -2.00278916795578      0.45846547585661
  C          -0.47799444311256     -6.60356903131385      0.88700707567588
  H          -0.16220404160079     -5.30259247306980      2.59301934873999
  H          -0.24292465432495     -4.15550532797087     -0.26301909453103
  H           0.60256083712119     -2.85283457534980      2.35204661989430
  H          -0.94984577000139     -2.35175753726773      1.63901225426000
  Cl          0.68298382129756     -0.94381587375453     -2.40587927434224
  Cl          2.85720182560999      0.95490446939241     -2.31386705167247
  Cl          3.22668733783407     -1.71664497947328     -1.27291733111272
  N           0.24299448738399      0.21678657439140      3.04230109369319
  F          -0.56446366769786     -6.55809551922738     -0.44662368071786
  F           0.50452615413756     -7.47070767508696      1.18255421384401
  F          -1.61786725803891     -7.16555611131703      1.32769053306162
