17
Coordinates from ORCA-job P E -25.564939715030
  C          -1.37413549297580      0.43360647495235     -2.31515887146231
  C          -0.01473266885450     -1.61177312006477     -1.08486329978594
  C          -1.39996676404903     -1.88276723256531     -1.58324213219720
  C          -2.05533371896942     -0.89767343291170     -2.17650852833387
  C          -0.76518821430159      0.83410801236993     -0.94970534826406
  C          -0.02548719676793     -0.31912278292626     -0.26668629235595
  H          -1.82350807485423     -2.86401062360096     -1.44234156331640
  H          -3.05578607720060     -0.99784105658497     -2.56675986228365
  O          -2.20591579429581      1.44614193155680     -2.81865157292072
  H           0.36418397775131     -2.43378261668476     -0.47672048243848
  H          -0.56474056463036      0.35010155640915     -3.05298495162507
  H           0.65767711789696     -1.48526429337036     -1.93984032612687
  H          -1.58528230595191      1.16428241921845     -0.30516895741816
  H          -0.46125877813874     -0.51696423013606      0.71453136765694
  H          -0.11148138316288      1.69239940227984     -1.10684181293733
  Br          1.84446599376308      0.17848465444346      0.14136205810161
  H          -2.97695005525856      1.53535493761518     -2.24648942429254
