17
Coordinates from ORCA-job TS E -25.467849934770
  C          -0.49216940531459      0.64527617691375     -1.20756007808262
  C           0.85917694816916     -1.54518565222976      0.04792246510605
  C          -0.47936695926605     -1.55950115692591     -0.18668328805334
  C          -1.14145561532570     -0.49542646146863     -0.82538657086968
  C           0.16428381719728      1.23990964783522      0.87618319817777
  C           0.96820438418687      0.27841348809050      1.39836686587927
  H          -1.09625217198579     -2.30945948715681      0.28945939396363
  H          -2.22520543790969     -0.49403864448368     -0.82382125312798
  O          -1.12339666474339      1.73380400349607     -1.70124870558274
  H           1.31598606308045     -2.32685177962716      0.63351906995778
  H           0.55404915267340      0.66031726984344     -1.46799447774618
  H           1.52845780910751     -1.01175870856433     -0.60197688776211
  H          -0.85896008227089      1.29897955596491      1.20437172042668
  H           0.66226112255398     -0.38713914407621      2.18615575180550
  H           0.57613202424168      2.11754793762750      0.41108160904316
  Br          2.86574632082784      0.49804661358175      1.33528644348136
  H          -2.07749130522208      1.65706634117935     -1.56767525661654
