19
Coordinates from ORCA-job NEB E -38.030695863980
  C           0.82593067601943     -0.81486480037881     -0.46503287830105
  C          -0.45722324842715     -1.27272432094309     -0.16865274878491
  H           1.61027931705172     -1.07891582436150      0.22652657658531
  H           1.12598172004394     -0.78769106954369     -1.50328194141319
  C          -1.46456118326461     -1.27479470538112     -1.32222337157666
  C           0.69687222466824      1.09909010447230      0.05838772597816
  C           0.25835451498888      0.91736739142363      1.38578868958947
  C          -1.00479450537187      0.39984653432353      1.64618642293639
  O          -0.90898059041712     -1.29128871889917      1.01935240692394
  N           1.92940505842507      1.66658067627640     -0.18453958890975
  H          -0.04461966980960      1.38905668811909     -0.67784201100828
  H           1.01852471356799      0.83780440995468      2.15110735425312
  H          -1.83067167307483      0.69467771097583      1.01362039198535
  H          -1.27760837540872      0.19102218077871      2.66846865632664
  F          -2.64146403848397     -1.80209042021199     -0.99043647195512
  F          -1.72227472895534     -0.02311565574199     -1.78142067953459
  F          -1.00526828506212     -1.95688882888021     -2.38718714542559
  H           2.66481109328315      1.41069088023918      0.45736920989969
  H           2.22730698022693      1.69623776777823     -1.14619059756893
