19
Coordinates from ORCA-job NEB_reactant E -38.060773683240
  C           2.53282106467716      0.61731101012888     -0.38250136611191
  C           1.55573756999971      1.40260673761913     -0.81737862235619
  H           3.11786847355803      0.85407726339021      0.48532759018859
  H           2.76400101065932     -0.29687721304912     -0.89439367374054
  C           0.75273592158708      1.04409435305828     -2.05407839717707
  C           3.16121228359130      5.10258838810955      0.24573154350553
  C           3.04361257516151      3.79094795479469      0.45401450132645
  C           1.74260988394923      3.14833870099019      0.81009841154169
  O           1.08764490350016      2.56547700640985     -0.32434133580196
  N           4.33783814216617      5.75746911767731     -0.02220901357709
  H           2.30654748155638      5.75403215099476      0.36941116063096
  H           3.89724441371979      3.14355997998373      0.31918769205962
  H           1.02950532302375      3.89789970869429      1.15863890508333
  H           1.86741847566500      2.38133845693094      1.58338761691965
  F          -0.56105177187275      0.96928365506799     -1.80187636777654
  F           0.90536355013703      1.95324244077758     -3.02950082888775
  F           1.10671391222157     -0.13654581703543     -2.58004786889523
  H           5.10283185815793      5.17784127032646     -0.33127010643394
  H           4.26704492854163      6.64061483513072     -0.49909984049762
