19
Coordinates from ORCA-job NEB_product E -38.052399529730
  C           2.02202506398553      1.89808091761822     -0.45189254782245
  C           0.96682720732043      2.11320502670856     -1.49285161675596
  H           1.60737073769982      1.28818394760170      0.35220362488749
  H           2.89854029125712      1.40585653389067     -0.87304572341125
  C           1.42317233926351      1.71780655068663     -2.93197835420308
  C           2.41461115034949      3.27731223991235      0.13333557511965
  C           3.48335312727693      3.10301440070032      1.17901071863908
  C           3.35909158076147      3.48314412998576      2.43660324915514
  O          -0.13880505319625      2.52454879847148     -1.30815623406546
  N           2.82345148916321      4.13622071137772     -0.96866674533870
  H           1.52160585507612      3.72713114628337      0.58033134100028
  H           4.40964852870411      2.67284755946841      0.81872591197677
  H           2.44565467082612      3.91818798707545      2.80765259434032
  H           4.16030823225021      3.37469447453414      3.14754721759209
  F           0.58649598535659      2.13436007208039     -3.87604019014274
  F           2.64279980705309      2.18301023043185     -3.23465815801810
  F           1.49946535761397      0.37471825105532     -3.02293893695100
  H           3.66922914157965      3.78527846567244     -1.40677241173508
  H           3.00975448765888      5.07499855644523     -0.63610931426698
