22
Coordinates from ORCA-job TS E -36.839093539530
  C          -0.77691683374915      0.38792889796281     -1.19809530938096
  C           0.61577772504993     -1.86320213444051     -0.01879692014949
  C          -0.72006230735236     -1.85409254083109     -0.23229162954044
  C          -1.39792290624391     -0.76312596978115     -0.82430591621997
  C          -0.11514857980509      0.97693734057422      0.89698051335586
  C           0.65610235973885      0.00230570746295      1.44347565544709
  H          -1.33107747513227     -2.62429009851878      0.21904874358882
  H          -2.48000933881174     -0.78421806057284     -0.80293414549716
  C          -1.53617466422680      1.55977478428277     -1.73007613179448
  H           1.07683356370841     -2.65915902524085      0.54200123102794
  H           0.27608320979859      0.38009186571949     -1.43455572476619
  H           1.28450673275748     -1.26639550380367     -0.61132502152251
  H          -1.14293949183279      1.07940269200276      1.18947871963757
  H           0.28777957165792     -0.68856412573747      2.18156628805561
  H           0.34725264635722      1.82560892411608      0.42518640592060
  C           2.14198754783592      0.13097625298723      1.39958381472847
  H          -1.57927967731550      1.49989782375556     -2.81865096221412
  H          -1.04658068283429      2.49682924243719     -1.47519364053596
  H          -2.55481167918528      1.57703777553389     -1.34963266937329
  F           2.79323832660421     -1.00686144609495      1.68265788139588
  F           2.60950862269290      0.55816650562761      0.21205351679925
  F           2.59185333028770      1.03495109255874      2.30382530103748
