17
Coordinates from ORCA-job NEB_product E -29.123064221500
  C           1.92798142631645     -0.85415046992417     -2.17277272961458
  C           0.67836667758819     -1.67228686735678     -2.13583001832918
  Br          1.60728324480780      0.64707222177878     -0.93879328064112
  H           2.78520767039348     -1.39572506915525     -1.77037990803076
  Br          0.99314409617924     -3.48091861736987     -1.40593475888910
  C           2.20632935125503     -0.34077171558854     -3.59405904613820
  C           3.41941512648653      0.54294552636656     -3.58177543880593
  C           3.39537864080224      1.83206615217660     -3.85923908121826
  O          -0.40687940160585     -1.37659528694581     -2.48711877323852
  C           2.42533811329873     -1.53811798797022     -4.52257010227345
  H           1.33617477040401      0.23172178380758     -3.93234426074688
  H           4.34533149080293      0.04727562828138     -3.32116836986968
  H           2.48113089565791      2.34182121828827     -4.11510620879925
  H           4.28777578436216      2.43269187126959     -3.83965231644403
  H           1.52913177084751     -2.15156115259966     -4.59049941370484
  H           3.24559938407783     -2.15824445164390     -4.16557782179703
  H           2.67179095832581     -1.18252278341458     -5.51987847145917
