19
Coordinates from ORCA-job NEB_reactant E -36.092979243290
  C           2.61232749704676      0.29189292224168      0.59768332528479
  C           1.62874792211843      1.10456528998682      0.97815585134368
  H           3.14097930843815     -0.35316595282369      1.26920577341580
  H           2.91825488652313      0.27357123620583     -0.43020791483356
  N           0.98862593278787      1.99588371350597      0.13509134600458
  C           4.18126402141818      0.37231020233402      3.98808474922811
  C           3.19594286803855      1.09948281401255      3.48556118234948
  C           1.79967796952285      0.59046380474811      3.29546020269777
  O           1.12623789427514      1.24183680987752      2.25083165790149
  C           5.56885485524499      0.82343709561494      4.21550483142703
  H           4.01893943009688     -0.66019228922152      4.27621386214321
  H           3.34155486590158      2.12831672402156      3.18473909966657
  H           1.21004039292306      0.82426717638564      4.19025565128536
  H           1.79415136975620     -0.49878881185182      3.15188694404243
  H           0.10131710897979      2.31929211918819      0.48855381059396
  H           0.97781176649656      1.73531778175527     -0.83728543860071
  Br          6.03032116725153      0.59362466796120      6.12507545250106
  Br          6.80212963206607     -0.30966835124465      3.16786785280649
  Br          5.91852111111428      2.66945304730239      3.74352176074247
