17
Coordinates from ORCA-job NEB E -26.270272196330
  C           0.98522950151669      1.36197059110284     -0.44856432555661
  C           0.62825713982755      0.71115750173272      0.66026239285191
  O           0.11224785786076      1.89502626992875     -1.36305130938865
  H           2.01427675216039      1.48554362297908     -0.73710644514203
  N           1.55300036869510      0.12359404138975      1.54207328001766
  C           0.06266343065750     -1.76168620654861     -0.79341625587272
  C          -1.01893158143696     -1.00741547407814     -0.86087098505430
  C          -1.58997704348923     -0.24216197412812      0.29775370157683
  O          -0.67696508854282      0.55066868594894      1.07240413656755
  H           0.43620199461029     -2.28333438857516     -1.65747128852885
  H           0.62574974273742     -1.87443102437942      0.11752571810984
  H          -1.56089779471366     -0.90563605865741     -1.79097645423783
  H          -2.03889278083980     -0.94469505516999      1.01326318198026
  H          -2.38835530556932      0.42730519664443     -0.05088624923811
  H          -0.78056365546325      1.81904210170286     -1.00746048430452
  H           1.17853080549482      0.07443587547525      2.48082921413982
  H           2.45842565649451      0.57061629463223      1.52569217207974
