17
Coordinates from ORCA-job NEB_reactant E -26.266943072330
  C           1.67969524612055      0.08178032588510      0.02821640074130
  C           1.40600985920185     -1.09391867727585      0.60142477308588
  O           1.57688781433613      0.28151800261820     -1.33393934593234
  H           1.95092433904990      0.93692463587937      0.63407835309256
  N           1.29139845257850     -1.24652686177643      1.99494027822376
  C          -0.94966845060412     -4.83094665038375     -1.13201292626669
  C          -0.57893082410764     -3.57694566045637     -0.95844039501032
  C           0.11972177376540     -3.06261826421326      0.26204013707443
  O           1.18361110347890     -2.20959831450481     -0.14627555676884
  H          -1.46301233070882     -5.15329724641985     -2.02118131210406
  H          -0.76515962566120     -5.58716034242309     -0.38612743371461
  H          -0.75626739847435     -2.82604772902568     -1.71484955886185
  H           0.51655236039210     -3.89650072960421      0.85785451578398
  H          -0.58870439464207     -2.49892582265545      0.88290667499843
  H           2.26611225753258      0.88912497754623     -1.61959525449634
  H           1.71512287957388     -2.10307031934557      2.32888934206324
  H           1.63710693816842     -0.44479132384457      2.50157130809146
