18
Coordinates from ORCA-job NEB_reactant E -36.255079264640
  C           2.17892066885844     -0.24709218607777     -0.06533123032068
  C           1.43545534156512     -1.23706190518184     -0.62585181552078
  N           2.31881921538831      0.97058659436903     -0.60404306529607
  H           2.68902677512480     -0.45572506818036      0.86421088045107
  N           1.37419271822883     -2.50842655376466     -0.00612846707168
  C           3.57970255585316     -1.96535851747756     -2.92727576359281
  C           2.49453971081210     -1.32666797589598     -3.32971809489499
  C           1.12052519676364     -1.76696011961907     -2.92346761737615
  O           0.69462842697675     -1.03852359846170     -1.76024886197003
  Br          5.32345631992832     -1.34660995764881     -3.30541006187844
  H           3.56766742299444     -2.88627388923093     -2.36493709418208
  H           2.57117002729334     -0.40399164560249     -3.88705467778165
  H           1.08520066993963     -2.84217379959213     -2.72372053752184
  H           0.38129078150937     -1.51223892457350     -3.68355369730898
  H           2.79246787453319      1.70522739091607     -0.11204304592814
  H           1.78979622038865      1.19127515264732     -1.43213329016891
  O           0.68844989627872     -3.36849979125541     -0.53359013628393
  O           2.03409017756319     -2.68058520537023      1.00869657664610
