20
Coordinates from ORCA-job NEB E -41.106057247350
  C           0.10712739151512     -0.83998959239596      0.76078426263369
  C          -1.06837903097300     -1.33402055024723      0.15556230717442
  N          -0.07469696903461      0.12745327657863      1.83096946806268
  H           0.86122013879408     -1.57437631765516      1.03164057190425
  C          -1.14309875661030     -2.70626091870479     -0.15975418472373
  C           0.77153868336359      0.32327140225111     -0.62974488478377
  C          -0.30656923515644      1.19682552891426     -0.73004259881062
  C          -1.63390289188062      0.67129007538482     -1.05769201982864
  O          -2.02039589533609     -0.53086446762316     -0.29941333151525
  C           2.12125839017286      0.86708749362190     -0.21981995045796
  H           0.87586116013794     -0.47641837053850     -1.35559771699357
  H          -0.23548758511060      2.18465250203366     -0.30477585278556
  H          -1.70151997453035      0.33735954221024     -2.09951282978161
  H          -2.42348802260396      1.39214098871400     -0.85042690166570
  O           0.55826443208636     -0.08750490986789      2.83933876193112
  O          -0.87869239663393      1.01210854438093      1.65824600486964
  N          -1.19135368766797     -3.82768015401026     -0.40394598732435
  F           1.99363321284295      1.90295617272466      0.66265513850108
  H           2.65201032014306      1.25868712214210     -1.09627642579354
  H           2.73667071648190      0.10328263208666      0.26780616938741
