20
Coordinates from ORCA-job NEB_reactant E -41.133228314610
  C           1.57944003351311      0.13932788189432     -0.04037863510531
  C           1.45455408675751     -0.29816232881381     -1.32112439016626
  N           1.53012358437253      1.46070455379496      0.46642758976780
  H           1.74769345422661     -0.59697156254685      0.73298462820308
  C           1.40555709131689     -1.73098705242061     -1.44109265033104
  C           3.98379974647954      2.63148607272821     -3.26576814382342
  C           3.22637813773497      1.86702095833898     -2.49805551797975
  C           1.76230372307720      1.64503784462780     -2.72337051079589
  O           1.39169766642960      0.28698097768300     -2.50471473249541
  C           5.43777120676899      2.87786603737476     -3.02690347096826
  H           3.58063662990420      3.14826719038096     -4.12468766164667
  H           3.66335888938413      1.36632204225914     -1.64426507406353
  H           1.49146867887230      1.83197572674079     -3.76448220287600
  H           1.18146743033375      2.31279376660488     -2.07081781536168
  O           2.10450996867722      1.66391643669077      1.51458693276606
  O           0.87841215731090      2.29708566355578     -0.13869122369888
  N           1.36011866442849     -2.86985964555898     -1.52479774850723
  F           5.91307001581809      2.15300099507198     -1.96642636921689
  H           5.62184920689367      3.93552514237650     -2.79957048308184
  H           6.03118962770032      2.58756929921744     -3.90285252061892
