20
Coordinates from ORCA-job NEB_product E -41.127949322530
  C           2.90445850645278      0.56313570965603     -0.96970254612351
  C           1.51714603908817     -0.03931385338836     -1.19316324391281
  N           2.90620861333774      1.34231907425283      0.30926991256515
  H           3.63087323716672     -0.25098467365822     -0.84181045207306
  C           1.49009334399178     -0.85128299426288     -2.40285171310368
  C           3.30242295888292      1.42964216170952     -2.19181993278742
  C           2.27590444860187      2.49880691734790     -2.46376421637559
  C           1.44749919660212      2.45603495530017     -3.48927849137164
  O           0.57043104065317      0.10557648202508     -0.47897026270811
  C           4.69641520720962      2.03563354972917     -1.99290561043609
  H           3.36447662761105      0.75816333034158     -3.05656383016727
  H           2.25034671310290      3.31291526669144     -1.75447704733359
  H           1.45781412253578      1.64792590847075     -4.20416060731857
  H           0.72221841528546      3.23222176575185     -3.65643831027623
  O           3.67066356164566      0.94866848534878      1.15200507284918
  O           2.13912327462901      2.25799216321489      0.40150380341199
  N           1.47918284087899     -1.48768737854582     -3.35295878414234
  F           4.70915711838284      2.89291458370499     -0.92798164420315
  H           4.98313650657919      2.61677378502937     -2.87468113385883
  H           5.44662822736221      1.26374476128093     -1.78825096263442
