18
Coordinates from ORCA-job NEB E -40.712652822400
  C          -0.01064856369960     -0.09147816481443      1.42463667416911
  C          -0.87986914111553     -1.15613522336258      1.14551604461515
  C          -0.60577395868688      1.12776217775010      1.84333165280689
  H           0.92545196088480     -0.32328201492319      1.92133098370713
  Br         -0.13260983379456     -2.95352496255089      1.37597804738487
  C           0.43330770269413      0.54739338817448     -0.50201166409082
  C          -0.35611415495091     -0.25134341095339     -1.32632174742813
  C          -1.73975246485775     -0.24807509411678     -1.11285011307406
  O          -1.91036744945258     -1.06759199872456      0.45443590312872
  C           1.92290440283113      0.51120020741760     -0.62623122336363
  H           0.06351668555889      1.54964235949220     -0.29925992428875
  H           0.08868309652082     -1.12800124682046     -1.78236295506888
  H          -2.35865881768218     -0.90288639273985     -1.70813078380512
  H          -2.21369906164467      0.67973716605129     -0.81724450003000
  N          -1.08830595838562      2.10885610371103      2.18080640744577
  Br          2.41393277421018      1.30990903119922     -2.37103995486990
  Br          2.79409506158745      1.58349453839141      0.76251560336682
  Br          2.65390771998289     -1.29567646318119     -0.56309845060518
