18
Coordinates from ORCA-job NEB_product E -40.761369780830
  C           2.83985956044887      0.44849429877829     -1.21588036693223
  C           2.56866420734512     -1.03956734745015     -1.13920193987426
  C           1.62474749018285      1.08667828669582     -0.74158265173446
  H           3.65229155276487      0.72579880400857     -0.53261733488435
  Br          3.41479184272117     -1.85106004535304      0.43204702048632
  C           3.13599440071348      0.97613633813843     -2.64656459856012
  C           2.18193404717538      0.41767727892622     -3.66908996385904
  C           1.11312657347751      1.07308350581004     -4.08010817239484
  O           1.88655480768296     -1.69248148612724     -1.84507105797741
  C           4.58211672748580      0.71333491772112     -3.05281901580878
  H           3.01051388981398      2.06800191165293     -2.61037159581485
  H           2.40666358787220     -0.56988627495851     -4.04671717967384
  H           0.44151760041119      0.64439188192581     -4.80173280803350
  H           0.86176332845645      2.05322071811976     -3.70892007896138
  N           0.67022095082017      1.60108584878097     -0.38884831513523
  Br          4.86629038463400      1.38293903971463     -4.86898226636849
  Br          5.83074772148486      1.66376389011335     -1.86802679040839
  Br          5.04270132650913     -1.18531156649700     -3.01531288406514
