20
Coordinates from ORCA-job NEB_reactant E -36.932455984290
  C           2.14753743414231     -0.56778908339235      0.14662171316619
  C           1.47748442933920     -1.17321413128154      1.14382180885227
  C           2.21630432612250     -0.94549210008413     -1.20047353140202
  H           2.71482846118225      0.32260399593257      0.37743742789421
  C           1.50186519238043     -0.63940332475501      2.54286050906362
  C           2.80136652148525     -3.92616591646236      0.06047364511488
  C           1.68490083105506     -3.72523688306639     -0.62826782698489
  C           0.50656125754960     -2.94671481785302     -0.14772334415179
  O           0.70182422134636     -2.27803787511574      1.07715770252360
  N           3.87711702837347     -4.70618929313618     -0.47734568601428
  H           3.00971753151967     -3.53108726368811      1.04308768853241
  H           1.58977516446433     -4.16012555970356     -1.61491926315774
  H          -0.31775385218049     -3.64558509864793      0.04197558992285
  H           0.18318008816267     -2.24928833390764     -0.93083499918837
  N           2.31122461790515     -1.21224787565147     -2.31466262624006
  H           1.68047161538155     -1.45414160522364      3.24133304249169
  H           0.53152310913404     -0.20768649957328      2.78518317868989
  H           2.26755980312364      0.11956567726660      2.66294431184202
  O           3.70869316156898     -5.27308228949267     -1.53273904675384
  O           4.89231905794403     -4.74558172216415      0.18446970579937
