19
Coordinates from ORCA-job NEB_product E -38.045945136110
  C           2.90143315646035      0.06010510678957     -0.98859785380286
  C           1.43229173464330     -0.29588924879282     -1.13948477191699
  N           3.16895131485698      0.84423758558440      0.19079917349772
  H           3.48468809259839     -0.86863857411096     -0.93958519050085
  C           1.06787745060181     -1.32130375671068     -2.24046840909646
  C           3.38628089534408      0.81513813084620     -2.26306890600551
  C           2.89064629776452      2.22900145937920     -2.28945650380741
  C           1.78658154317197      2.60372035297775     -2.90667721732412
  O           0.56412584551726      0.17547243629647     -0.45690664046744
  F           4.76114474760151      0.80415443647558     -2.25043339154136
  H           3.09046458980455      0.26463662391293     -3.16417716529041
  H           3.51260899429783      2.92566458664291     -1.74703491623103
  H           1.17146701497861      1.90810177214998     -3.45379173329549
  H           1.45249062428729      3.62620356311982     -2.88916950950430
  H           2.54119745946878      1.64037295793189      0.23560916841991
  H           3.03759861831480      0.29343084741553      1.03062960181208
  F           0.78361016909947     -0.66462293329867     -3.39128554539965
  F           2.09685787802475     -2.15220286473768     -2.51454335354706
  H           0.18888357316374     -1.92218248187141     -1.96225683599876
