19
Coordinates from ORCA-job NEB_reactant E -38.050630761270
  C           1.06025764591337      0.11057770964476      0.06490167166009
  C           1.73198025149675      0.14984373575550     -1.09833696400353
  N           0.78066703709659      1.21621640901231      0.82186670369659
  H           0.74867163421475     -0.83619407473655      0.47865122059771
  C           2.07824134334108     -1.11637480511068     -1.82361211040401
  C           2.90225370056155      1.16958031609617     -4.35674046892471
  C           3.77984129523324      1.33926598901515     -3.38810440326008
  C           3.40334411543713      1.62496186771385     -1.96485782979261
  O           2.03699302153996      1.37964160373718     -1.66130804464915
  F           3.28900350123081      0.94724489229253     -5.62270529706274
  H           1.82806737544529      1.18632573742062     -4.25310789998010
  H           4.83841555418396      1.29525884381051     -3.59397649522187
  H           3.55561209622791      2.69463577575954     -1.76703362089418
  H           4.05660899327253      1.06132718034222     -1.28833403463248
  H           0.92956807440135      2.09249478318914      0.34413938045688
  H          -0.03861509013613      1.18038106979470      1.40455650140412
  F           1.55620430959053     -1.15035022982108     -3.07798624835013
  F           3.42249258197269     -1.28836187710306     -1.98499255494893
  H           1.70359255897663     -2.00007492681281     -1.28521950569087
