24
Coordinates from ORCA-job NEB E -45.991470111120
  C           0.21607856217229      0.69022231818292     -0.64334673036015
  C          -0.87866178599668      0.63157857283949      0.29849906703158
  N          -0.29452191896215      0.81452091139837     -2.02425816287342
  H           0.94562233416891      1.47927343591346     -0.46060410879201
  C          -0.86920672705079      1.49176924796999      1.52802075047288
  C           0.92884845432807     -0.85319054506748     -0.58371812101435
  C          -0.10859424454230     -1.78093051983809     -0.93909430529681
  C          -1.26756890030640     -1.76959925925401     -0.10389432468951
  O          -1.76709506095032     -0.29565339563487      0.17560729403906
  N           2.08164137095648     -0.87513527773133     -1.50118284017193
  H           1.31191054383243     -0.90500068674677      0.43710937696892
  H          -0.16748946622820     -2.12194475070850     -1.95888630104232
  H          -1.11189778653053     -2.07297956134300      0.93090618792998
  H          -2.13664813185355     -2.25642828871845     -0.53296609453697
  O           0.08437230841588      1.78531579149500     -2.63811891535393
  O          -1.09650561873275     -0.01227150580798     -2.38289203482190
  C           0.21428481468369      1.04296375273350      2.51653063945520
  H          -1.84865745225289      1.41878154162999      2.00109747393546
  H          -0.69371477679547      2.53078807475973      1.24572824907462
  H           0.05669115826685      0.00977675816318      2.81676366353421
  H           0.17269778533679      1.66528665272776      3.40585404088181
  H           1.20626713067038      1.13704715597136      2.08175671270606
  O           1.84758925575608     -0.90026070525310     -2.68196105627039
  O           3.17455815161418     -0.85392971768116     -0.98695046080610
