24
Coordinates from ORCA-job NEB_reactant E -46.023980718990
  C           1.17286642701820      0.32872554426052      0.34721392975549
  C           1.46125966216691     -0.81979610381187      1.00054693227697
  N           1.49631009749399      0.59759731730466     -0.99976146067061
  H           0.66259817718647      1.13857010549597      0.84058902827736
  C           1.08971161083560     -0.94479229519551      2.45278072152807
  C           3.90561330650234     -4.89430074305960      0.25491337101503
  C           3.16546611334653     -3.83539770457968     -0.04455313190386
  C           2.39252841806533     -3.03596001874312      0.95111265980450
  O           2.11087920178353     -1.78755621915237      0.35611259635136
  N           4.60237857558962     -5.63276632404820     -0.76264720196103
  H           4.05639723364059     -5.29442237554249      1.24663670254849
  H           3.08852791209705     -3.49701756835705     -1.07143871092999
  H           2.96175063432849     -2.92229034079463      1.88212212487780
  H           1.45646365841495     -3.57036999593672      1.17862075079361
  O           1.17499326896666      1.69640066432084     -1.41815198420533
  O           2.05856661397437     -0.25057791836697     -1.66325962361133
  C           2.23152102811572     -0.44109955356276      3.34313341508653
  H           0.85101491746036     -1.97862326551521      2.70502463056556
  H           0.20314285072217     -0.33987293610890      2.64046196531217
  H           3.14725197983690     -1.00349752967068      3.17626794207927
  H           1.95394949143117     -0.53839458344452      4.38918074069987
  H           2.43435444589007      0.60546272197464      3.13345507288319
  O           4.46084942193956     -5.30026468612604     -1.91547896575349
  O           5.28960495319342     -6.55245619134033     -0.37528150481962
