24
Coordinates from ORCA-job NEB_product E -46.028058465520
  C           2.60804433929993     -1.54393396580948      0.43069107280706
  C           1.43098179756420     -1.45646764903404      1.44161128953319
  N           2.11378882298060     -1.00480325392824     -0.87718096811544
  H           3.39470310999983     -0.85220847713237      0.74903293457630
  C           1.22835912205854     -0.08863793088868      2.02158905517028
  C           3.15524113304278     -2.96514088653962      0.30452615567648
  C           2.16515590975640     -4.04328593634862     -0.02688698014973
  C           2.13794035109332     -5.19881708258298      0.60915426179012
  O           0.77932194475691     -2.42273552259836      1.71480076991767
  N           4.26982853646814     -2.97385248624432     -0.72093387001037
  H           3.64824243563873     -3.22244577737488      1.25182903354426
  H           1.50269090980604     -3.84268315898622     -0.85409317125628
  H           2.80011395835075     -5.42174201314770      1.42959035440739
  H           1.43919975118064     -5.96834209762512      0.33585828487757
  O           1.87664319169937      0.17492339968914     -0.89728897005684
  O           1.97293413261550     -1.77411614618309     -1.78693239416457
  C           2.26691985718052      0.19105891790273      3.11362123314632
  H           0.22949648095072     -0.04980126925804      2.45772259683134
  H           1.31235669057112      0.66260623296441      1.23407423410774
  H           2.22514439839116     -0.57572092642655      3.88357224035619
  H           2.05405145845362      1.15198458309419      3.57277222508540
  H           3.27551786340597      0.22657287794459      2.70898212308018
  O           4.76916897116500     -1.90752079928333     -0.98285329133452
  O           4.59985483357023     -4.04089063220343     -1.15255821981976
