21
Coordinates from ORCA-job NEB_reactant E -45.914395600900
  C           1.63080146992733     -0.04868692097258     -0.19597995994515
  C           1.64396168592444      0.88623050216057      0.76338272903779
  C           1.46693687631995     -1.48956901004026      0.14692875107586
  H           1.72474140677997      0.19181903925268     -1.23790280291864
  Cl          1.88354962553863      2.53660580565835      0.30877585937645
  C           3.95373191998506      2.77341462436586      2.99999194081948
  C           3.31065744682031      1.62248475320799      3.17207259169939
  C           1.82390154293833      1.50780588091564      3.07115591884711
  O           1.43866426128876      0.59663586456542      2.03126728480804
  O           5.27488977191162      3.01040909919615      3.05593266059669
  H           3.42149279051372      3.69647254414396      2.80687601362856
  H           3.82621391652056      0.69290617876237      3.35455705493516
  H           1.35949855955578      2.48467879495519      2.90562198852400
  H           1.40122695221548      1.04746218819501      3.96785904246469
  F           1.59908841523625     -2.26723036595697     -0.93650467982258
  F           2.37767647706529     -1.92577384577526      1.03829491931123
  F           0.26650612677069     -1.78471221610137      0.67864627500603
  C           6.13094107371251      1.91477306796091      3.29538852798095
  H           7.14186283965893      2.31745166221275      3.29154414779696
  H           6.03406874356301      1.15871105149876      2.51080308691666
  H           5.92168809775338      1.45651130179482      4.26638864986134
