18
Coordinates from ORCA-job NEB E -29.958399397510
  C           0.17757808857005      0.00150439771260     -0.22764322236371
  C           0.32190287204558      0.13946421823571     -1.65819116107628
  C          -0.08827774297012     -1.24762214384210      0.45273523190476
  H           0.87673897654661     -1.65317593257235      0.05536397515580
  C           0.37378280510962     -1.13722613573796     -2.46856583736438
  C           0.45709489808009      1.14769483160533      0.65589802988438
  C          -0.26737103069777      1.12504762454167      1.95500098405399
  C          -1.50769512887581      0.66750138068991      2.05756784397136
  O           0.33358434394882      1.24307141463526     -2.17686949549113
  Br          2.44606025682324      1.35205397158107      0.98782901028057
  H           0.23477929713562      2.04089204748266      0.05685044210256
  H           0.28019017777570      1.45530945407704      2.82526837153269
  H          -2.08126240526609      0.36451610147619      1.19779538726081
  H          -2.00983403895129      0.62784874962594      3.00749929368247
  N          -0.73340819713986     -1.78964110767280      1.30046465393421
  H           0.17056276527548     -0.90486623497683     -3.51063405460343
  H          -0.35503586813025     -1.85888875154695     -2.10411076578597
  H           1.37060993072038     -1.57348388531439     -2.40625868707869
