18
Coordinates from ORCA-job NEB_product E -30.055730666060
  C           1.19967563966684      1.62877609634062     -0.01603371329693
  C           1.75982430036424      1.96493795165859     -1.41910460671345
  C           1.62329082576436      0.34864709620766      0.49214299257526
  H           0.10313193383901      1.62274333253909     -0.09919338152991
  C           2.80030019284043      1.03380593223115     -1.94689224784373
  C           1.56965663601640      2.76860348387401      0.94983010836787
  C           0.96291483400688      2.60094161102480      2.29804558337880
  C           0.22692654383483      3.53085626657404      2.87864277895690
  O           1.35668238274817      2.94145789008794     -1.98848102519021
  Br          3.54817893700882      2.83832145482534      1.15093870365134
  H           1.29779000706830      3.72476062431488      0.49658347345880
  H           1.17670607199474      1.66062740109093      2.78914466046413
  H           0.01951064716897      4.47423808051544      2.39984907019002
  H          -0.19789266349573      3.38393174199492      3.85586032273559
  N           1.95545402603872     -0.66552620620204      0.90080091900800
  H           3.13166850850647      1.36203492835283     -2.92861798688098
  H           2.39826950940232      0.02328693769825     -2.00733988851030
  H           3.64811166722624      1.00775537687155     -1.26237576282120
