18
Coordinates from ORCA-job NEB_reactant E -30.051949912150
  C           1.75887595091782      0.23875262943042      0.05598757493280
  C           1.38516332735243      1.25197535551930     -0.74830700079231
  C           1.70873500478076      0.16543285222078      1.45340859277573
  H           2.15887623730317     -0.65387318027865     -0.40465968983608
  C           1.52913289838544      1.15264631705387     -2.23718251605333
  C           2.10870436533117      4.55280986801607      1.97802035548293
  C           1.95229703474641      3.31517963460252      1.54561715786654
  C           0.67114251147795      2.82856124527075      0.93589550636863
  O           0.84619649850890      2.44033740819110     -0.41666299295685
  Br          3.71848321660352      5.16950041337535      2.74191418386778
  H           1.33699504968022      5.30595487966012      1.94689921542692
  H           2.75970672595551      2.59959370873306      1.60346798064464
  H          -0.06598180594994      3.63537356941816      0.90035880212216
  H           0.26791775726141      1.99717170314417      1.52543849642667
  N           1.70410792430331      0.04336890321416      2.59696595663725
  H           2.28311286719599      1.86145429775564     -2.57725077468545
  H           0.58795491966960      1.42281961614436     -2.71175232157296
  H           1.81677951647636      0.15194077852882     -2.54165852665508
