15
Coordinates from ORCA-job NEB_reactant E -30.481349763030
  C           1.31803523369356     -0.34035861756599      0.15710522687497
  C           2.26625319494917     -1.27903572272075      0.10787651231783
  Br         -0.01341023881192     -0.26315808156771     -1.17740354099371
  H           1.25617283828841      0.41555451609720      0.91714536205976
  O           3.24496277980229     -1.39805586314949      1.04139716373433
  C           1.63576248092078     -4.31422460268180      0.79985017834418
  C           2.82634608434264     -4.26538403116889      0.22846140294815
  C           3.21654484660196     -3.24110388396159     -0.79742170398866
  O           2.30728532166783     -2.16248132364564     -0.90236509060067
  Cl          1.22231655215727     -5.49288596438293      1.97812469703748
  H           0.83194691785136     -3.63110037778600      0.57199312243066
  H           3.59685868893756     -4.97856161772653      0.47860506265474
  H           3.22098211528983     -3.69291003996758     -1.79467713178218
  H           4.22384804685637     -2.86921609922538     -0.57451225491676
  H           3.14469513745287     -0.72707829054688      1.72502099387988
