17
Coordinates from ORCA-job NEB_reactant E -33.046492781270
  C           1.84791146759026     -0.27208734513176      0.21638600527940
  C           1.45654738015742     -0.91500319464710      1.31034062425748
  I           2.67914392668493     -0.96091194196752     -1.59434470928476
  H           1.71738270901585      0.79529797102044      0.18791124287393
  C           0.85715521202152     -0.11889386861023      2.45770815566014
  C           4.36727830300450     -4.14050613804060      1.59004052628128
  C           3.62492028351112     -3.12811867882930      1.18114453458001
  C           2.14090210392622     -3.22937564015995      0.99442570815614
  O           1.44262938993916     -2.21515433869077      1.69686829535224
  Br          6.23748860497503     -4.00933569262782      1.80564265539281
  H           3.97902249486436     -5.12098220076509      1.81645944770146
  H           4.07160611354931     -2.16626616829293      0.97449675568526
  H           1.76466747060137     -4.16089936678920      1.42555547187354
  H           1.88830203844749     -3.21567007805607     -0.07128277060078
  F           0.61840110043534      1.18232280158724      2.13008312666771
  H           1.54306438052412     -0.12191845753877      3.31272044636453
  H          -0.09662297924801     -0.56929766246057      2.75214448375959
