22
Coordinates from ORCA-job NEB E -44.874905882600
  C          -0.02378842121815      0.11027792456114     -0.94605967610356
  C           0.29985608031389      1.41521767935732     -0.47867504982557
  C           0.94599801290561     -0.63610802402260     -1.79931960287920
  H          -1.04537447324854      0.00453613850300     -1.29088203779824
  N           1.59689980768012      1.82404387252549     -0.34326552246898
  C          -0.32758630641829     -0.74892560769783      0.83706814690081
  C          -1.29776572365238      0.08216306165549      1.40535961121520
  C          -0.96114461364028      1.41911996464252      1.66944432882274
  O          -0.60267581704891      2.09587867198819      0.12088662717005
  C          -0.70070979486003     -2.18280029014145      0.56126310237301
  H           0.69276079317012     -0.64810245924905      1.19049973682064
  H          -2.33442114774726     -0.16009800700658      1.22223344039278
  H           0.00240884865748      1.61287981460322      2.12751564849058
  H          -1.74411536357110      2.08688789882461      1.99822248073936
  Cl          0.20112617036815     -2.03575092501075     -2.59729426019243
  Cl          1.57787384382554      0.42195513098480     -3.14115520839081
  Cl          2.37709371991271     -1.20115055319344     -0.89572842603199
  H           1.72181622272607      2.77542045727679     -0.03601262961381
  H           2.30449868874763      1.45329541090912     -0.95439637137253
  F          -1.87422291088044     -2.26786457851538     -0.14509073499796
  H          -0.86976791177576     -2.70758154110557      1.51005838834185
  H           0.06124029575382     -2.71329403988905     -0.01467199159192
