22
Coordinates from ORCA-job NEB_reactant E -44.907054305560
  C           1.36229983031026     -0.41150630505011      0.06458350871089
  C           2.11913665350337     -1.32773529504196      0.71748572313277
  C           1.85626459167553      0.37083141785461     -1.06780410581140
  H           0.34913671975752     -0.21753911000680      0.36129556788939
  N           3.39635765505186     -1.64846232253800      0.38158955590090
  C          -0.49025446381037     -2.81855266103713      4.36015788856328
  C           0.12280359864191     -3.05012783282826      3.21234214014546
  C           0.33259989467240     -2.01963531878465      2.14854136160976
  O           1.69483793158012     -2.07693160712972      1.75492852362755
  C          -0.72554497204349     -3.84939484866847      5.41639847632221
  H          -0.88251841982147     -1.84158626360427      4.60681433100559
  H           0.51555488980772     -4.03039414429910      2.98544544214868
  H           0.08542655961615     -1.01807221848878      2.52215383804192
  H          -0.30764109339618     -2.24556461276601      1.28347168542228
  Cl          2.38195650367309     -0.65888052397458     -2.45712293284428
  Cl          0.62171515486491      1.48276645835488     -1.66164067898638
  Cl          3.31522996580226      1.37505905214156     -0.63842390624402
  H           3.89138230073129     -2.21806162158406      1.04716280362939
  H           3.93327497393746     -0.97904653207145     -0.14358840251060
  F          -0.23316394472238     -5.07723562448963      5.06112032464264
  H          -1.79928838274125     -3.97939988127958      5.60295306771207
  H          -0.22936594709072     -3.56673020470847      6.35363578789189
