24
Coordinates from ORCA-job NEB_product E -36.607367572610
  C           3.35771532006898     -0.88353830068496      0.67703855354570
  C           2.17568997713881     -0.25380226593969      1.39205408939446
  C           3.04931922605248     -0.99777268147443     -0.81388588140446
  H           4.22266127006046     -0.22211395246744      0.79437996031989
  O           2.48536396624872      0.05159146628408      2.65374580583127
  C           3.67834890960843     -2.22668865421824      1.38313723587088
  C           2.44051274816833     -3.06877173419658      1.49904756440409
  C           1.85609869317698     -3.36596675096795      2.64387542170261
  O           1.09366537009567     -0.05928890873462      0.90489561481813
  C           4.78900456444746     -2.98827323735623      0.66117720092705
  H           4.02085226034869     -1.97523926452437      2.39224803331429
  H           2.03252882641255     -3.44336061840534      0.57016999763629
  H           2.24294520088327     -3.01195034640631      3.58608728573641
  H           0.96891144031214     -3.97411273536746      2.69168387010364
  F           4.21066123574141     -1.02119215722634     -1.54645900869557
  H           2.47870740955747     -0.12678134301574     -1.15068659580550
  H           2.49610709956461     -1.90726085508705     -1.05828301272124
  C           1.43306882312557      0.59427359313072      3.44176240434298
  H           1.85517622908956      0.77922050327877      4.42593248317594
  H           0.60584502222710     -0.11524143626777      3.50293803782612
  H           1.06823910382446      1.52275185965161      2.99875516923114
  H           5.67438882575459     -2.36539781491300      0.56107099085703
  H           4.47505070587573     -3.29658974197312     -0.33209421401971
  H           5.05013777221652     -3.87849462311854      1.22890899360859
