24
Coordinates from ORCA-job NEB_reactant E -36.571176521310
  C           1.57015681756146      0.12380086429641     -0.22826275462083
  C           1.83423743153129     -0.21282686477926      1.03902046884812
  C           0.77871676626966     -0.72600844790704     -1.16024231688839
  H           1.96979184819300      1.05159988652371     -0.59962119371703
  O           2.52973223870108      0.65660164975725      1.81533587024733
  C           4.06918010001224     -3.34372567203596      2.54323254991115
  C           3.51928571240176     -2.55218097968887      1.63694968772422
  C           2.06636790998229     -2.56606790998112      1.27287836757136
  O           1.39756382334831     -1.35102993580536      1.64526769677992
  C           5.51434183095768     -3.33738784261406      2.90900534905983
  H           3.45734886930004     -4.06788889177674      3.06685659999406
  H           4.11774295472698     -1.82185794473622      1.10622047178223
  H           1.52992478990126     -3.34471593006583      1.81897851905477
  H           1.96276945078282     -2.73667721939769      0.19558966410309
  F           1.59576133496590     -1.55469573511765     -1.92394817054439
  H           0.22647539266899     -0.11445657309046     -1.87930115034264
  H           0.09452626139709     -1.38962680116391     -0.62189413327330
  C           2.64276134406560      0.35607313426795      3.19384636961060
  H           3.18396787396048      1.19401737448598      3.62795960921085
  H           3.19983047082082     -0.57096029576816      3.35580234876844
  H           1.65727356968286      0.26742273475692      3.65742203284124
  H           6.05609309924979     -2.57635129796298      2.35327190244256
  H           5.95730161990904     -4.31011804930601      2.69752372744266
  H           5.63134848960953     -3.14893925289091      3.97600848399414
