17
Coordinates from ORCA-job NEB E -30.166317649770
  C           0.73956995401917      0.14370433615003      0.80156145385900
  C          -0.67509488825964     -0.17710733486707      0.51998254927440
  Cl          0.88118674972072      1.93839368388223      1.14834793785852
  H           1.09728749834849     -0.34605655348633      1.70597055379284
  C          -1.49932941332102     -0.84450333145663      1.56462060301816
  C           1.53727931474796     -0.23306001991318     -0.44340644628250
  C           0.57923371667944     -0.22023398781707     -1.55616619493960
  C          -0.53787133545099      0.77567770728924     -1.51174847075889
  O          -1.36241138770057      0.48757506362523     -0.41163238598969
  F           2.66719825171409      0.60393651898132     -0.64954508404151
  H           1.99005327775328     -1.22247592474746     -0.30096001956572
  H           1.00931000491146     -0.38326415945424     -2.53550819021159
  H          -1.17666888950298      0.72935831518719     -2.39562670900450
  H          -0.13755926258544      1.79745345312410     -1.42408032262577
  H          -1.17037110039485     -1.87426824334389      1.70154640872482
  H          -2.54256515682532     -0.84057609835666      1.26256848002937
  H          -1.39924733385379     -0.33455342479682      2.52407583686266
