17
Coordinates from ORCA-job NEB_product E -30.229683488390
  C           2.92699982633839     -1.84667807969784     -0.88659033619747
  C           1.45882410587523     -2.27736963941298     -0.93915548570330
  Cl          2.97462240763518     -0.18688254724142     -0.20674288349902
  H           3.47831546615128     -2.47897126178917     -0.18406823720205
  C           0.79211880824771     -2.37524471656080      0.39952332925170
  C           3.61095006855157     -1.90765403071595     -2.25942546610654
  C           3.47779657221884     -0.64032225245516     -3.05239283183337
  C           2.44534862523800     -0.37605635261466     -3.82847458406341
  O           0.91511167301371     -2.53610097079555     -1.97896410292158
  F           4.94798244101435     -2.19281288373760     -2.06166163888866
  H           3.19266901227378     -2.76199846703072     -2.80841864440861
  H           4.29769624206680      0.05220434659388     -2.92625238364585
  H           1.63170210447111     -1.07300962537317     -3.94032559894522
  H           2.37030513815020      0.55298542778689     -4.36579684851845
  H           1.21454307608053     -3.21966065887949      0.94229799225020
  H          -0.27496806993795     -2.53281715668804      0.27006718205400
  H           0.97168250261127     -1.47701113138823      0.98388053837762
