17
Coordinates from ORCA-job NEB_reactant E -30.220132133250
  C           2.12724642800132     -0.36764615040451     -0.10581149475616
  C           1.52358293932357     -1.44410053613343     -0.60609770348753
  Cl          2.99094924748215      0.88975901214772     -0.93916017055690
  H           2.11517661639814     -0.19853425755162      0.95701362951752
  C           0.82182268404998     -2.39552364980971      0.32659039143064
  C           4.08128815176695     -2.46402810289256     -3.87859198360019
  C           3.53792481722312     -1.69647447730061     -2.95477723410813
  C           2.08946806385852     -1.31445789929344     -2.96644104719471
  O           1.38021736677271     -1.88726691583198     -1.87889749346946
  F           5.37986104700090     -2.79818658465836     -3.84847740312038
  H           3.57764943272652     -2.88214953549457     -4.73870977474655
  H           4.13613585778371     -1.33585893225852     -2.13151597362456
  H           1.59771380764697     -1.72406268195606     -3.85283845047068
  H           1.98388928175563     -0.22542331567991     -2.96892577835083
  H           1.32845167832678     -3.35850273960357      0.30879661255320
  H          -0.19697012607207     -2.54929957982189     -0.02139908625641
  H           0.80569270595511     -2.01574365345698      1.34164296024113
