21
Coordinates from ORCA-job NEB E -41.732652583220
  C           0.43784583008345      0.62731026403911      0.20438270870045
  C           0.82507121516718     -0.55304401112335      0.98211162734080
  O           1.35632382090363      1.28115426565582     -0.44815339130251
  H          -0.56074352731385      1.08599338805148      0.25303283271620
  C           0.67814302993577     -0.30344082107900      2.45649037627917
  C          -0.45627012070638     -0.85777366906535     -1.92523073021544
  C          -1.39427242200541     -1.10537773854800     -1.02560917633304
  C          -1.07932903778853     -1.82699944635236      0.24909068292330
  O           0.29880885508397     -1.78504022672440      0.56487263550697
  F          -0.71117345660492     -0.14632996226553     -3.03958936714671
  H           0.56928437272286     -1.19101390002905     -1.87151761892279
  H          -2.40730025865068     -0.76087218648660     -1.17247196405014
  H          -1.31770771976915     -2.89159821177979      0.15056885575175
  H          -1.68763360561210     -1.41552788626772      1.06607820961506
  C           1.00929125216203      2.44525646213884     -1.17251125011857
  H           0.81828687322215      2.17482813354651     -2.21487155626872
  H           1.86265379806106      3.12063361519124     -1.12841894507099
  H           0.12198075408629      2.92821608113966     -0.75624880426855
  F          -0.62216050547261      0.07925739056062      2.83592827964162
  F           0.92623421011062     -1.40984784284357      3.17623897144000
  H           1.33266664238461      0.50421630224145      2.81582762378213
