20
Coordinates from ORCA-job NEB_product E -34.156360948320
  C           3.34544605999870      0.75524747248945     -1.57146985870982
  C           2.11916344002309      0.08163195107828     -2.22446505785002
  C           3.39449013471217      0.52470941150350     -0.15240602225164
  H           4.23939099962127      0.31891193308709     -2.03299045291257
  N           1.09972564086328     -0.18542587505366     -1.39020371998953
  C           3.28270152395407      2.26398775812212     -1.92929176496014
  C           2.15969267057464      2.92994476058627     -1.18595974872615
  C           1.05550654160795      3.36402481145981     -1.76177865782278
  O           2.09139900047374     -0.13667804664316     -3.41107936433571
  C           4.61503143883214      2.95883290076380     -1.63901263455642
  H           3.10859547872997      2.33071535988143     -3.00871670388239
  H           2.31328441095263      3.02809589704207     -0.11936776135340
  H           0.89312054160413      3.26667039410453     -2.82307920560012
  H           0.26827691803391      3.83299333760430     -1.19737045783937
  N           3.38320446918648      0.30590529374798      0.97044346167628
  H           0.26681242775881     -0.60809878646352     -1.76644854608948
  H           1.15396996481285     -0.01061702191892     -0.40127680628533
  F           4.92475487466757      2.91142584673508     -0.30509457232512
  H           4.55873167439112      4.01770355868510     -1.91281890826893
  H           5.44190178920148      2.47751904318847     -2.17291321791735
