19
Coordinates from ORCA-job NEB E -36.420144828490
  C           0.85376597142779     -0.30997577932923     -0.43955738658312
  C          -0.17755822954160      0.58663015085501     -0.84840686784690
  N           0.59394099743387     -1.69992356720672     -0.80146106569686
  H           1.86702207962340     -0.04241473488845     -0.73200333394718
  C           0.17127294572347      1.88828995786233     -1.49964554050578
  C           0.72420821397598     -0.36107315287461      1.34561874650590
  C          -0.60431983672388     -0.76818649929409      1.58969892756689
  C          -1.64785472104367      0.04866773403499      1.01902351345149
  O          -1.40484301283564      0.37383489696052     -0.47370775913204
  Cl          1.98919480315837     -1.44153373350579      1.92749135965121
  H           1.00161591149248      0.66531851671408      1.57237820122012
  H          -0.81149374177880     -1.80107130496117      1.80962209081960
  H          -1.70298679943063      1.06147201982735      1.42129489623045
  H          -2.62392706342889     -0.42653495381746      1.02441646571632
  O           1.46398638439098     -2.25277589992219     -1.43910578108343
  O          -0.47761878886774     -2.16780889134656     -0.49642318678211
  H           0.78085830854740      2.49480861546442     -0.82721164905631
  H          -0.73818780911389      2.43016656167125     -1.74205036921377
  H           0.74292438699102      1.72211006375633     -2.40997126131449
