19
Coordinates from ORCA-job NEB_product E -36.457638652800
  C           2.52390321554236      0.45264274692630      1.72424904235324
  C           1.53799795096082      1.39719550304744      0.97945704461377
  N           2.64808474258522     -0.75543075496739      0.85589355937968
  H           3.51773143821701      0.91052420656515      1.72895975939966
  C           2.19834731591345      2.17970621001931     -0.10827976282960
  C           2.07856835176982      0.15547163628524      3.15496868762164
  C           0.70309304791150     -0.39338799934105      3.33274166993501
  C          -0.14020434616631      0.08957893654425      4.22705124248619
  O           0.37934842886260      1.45051076215271      1.27149988372096
  Cl          3.27510759060304     -1.02021088032064      3.85732543704929
  H           2.19292597330269      1.07205453135944      3.74130484710274
  H           0.44693123362869     -1.24427215636751      2.72152151010760
  H           0.10853833087697      0.93263546379186      4.85120128766644
  H          -1.12032409545377     -0.33213363091964      4.35882951921138
  O           3.40329959774204     -0.63065549453486     -0.07877916815758
  O           1.98807116570596     -1.72422743649602      1.09908955991004
  H           2.84059117864428      2.93910295791465      0.33541623954591
  H           1.44945205333223      2.66516810199642     -0.72782886666940
  H           2.82603682602139      1.52712729634434     -0.71422149244697
