19
Coordinates from ORCA-job NEB_reactant E -36.456189233710
  C           2.03422014381391     -0.01309828942812      0.28485219095418
  C           1.59160750913522      1.14330513976061      0.83645043423161
  N           1.68476860925070     -1.34828011501148      0.55108884104126
  H           2.78200274119527      0.05566622135609     -0.49097057929977
  C           2.04649401406839      2.43749742518337      0.22071154653093
  C           1.94122347651702      0.26043433997267      4.98033416181360
  C           1.80985547488794      0.07500481482019      3.67743985508866
  C           0.56554925225793      0.44004866135868      2.92723525336183
  O           0.83161315855058      1.38835625319517      1.89544071618757
  Cl          3.35559294250154     -0.17939674820963      5.84350252762902
  H           1.16454280786493      0.68165261747947      5.60039144205262
  H           2.61819530472650     -0.35349191624083      3.10238267910942
  H          -0.14643714160422      0.94827645698991      3.58013291359697
  H           0.10481959207885     -0.46550399321909      2.50972654052555
  O           2.49649701358529     -2.19966642096630      0.23645443825986
  O           0.58411271438814     -1.60167945230164      1.02289462979172
  H           2.93779211659374      2.79170821687372      0.73692588876570
  H           1.26806797852335      3.18408417392915      0.35347187445114
  H           2.27218229166492      2.32168261445807     -0.83356535409189
