23
Coordinates from ORCA-job NEB E -44.491758556330
  C           0.51158002279418      0.17820152769076      0.47662593842369
  C          -0.87199865812112      0.16797343785203      0.53729216720073
  Br          1.32489998968563      2.32474580967917      1.22842532879326
  H           1.04721640956805     -0.32193785352991      1.26963278631913
  C          -1.61714443681405     -0.39520717900804      1.70899910313339
  C           1.06590307601766      0.01176933763716     -0.95532375622547
  C           0.36090343183824      1.00814454953730     -1.79211589115046
  C          -1.09125556464834      1.12851360504791     -1.63340197329182
  O          -1.65545816124533      0.63268357038618     -0.43219226763529
  C           2.58611565532292      0.12840261633975     -1.05895911785854
  H           0.85468070494481     -1.02687265003801     -1.26131985754137
  H           0.90694629965929      1.85897473167844     -2.15830756707383
  H          -1.63284695442218      0.58467960450419     -2.42326283035597
  H          -1.39460135296543      2.17872262754940     -1.70930229771020
  C          -1.46648330425756     -1.91494929575059      1.81196432079093
  H          -2.66991634741918     -0.13520595984447      1.59846552504595
  H          -1.23433543277217      0.06981413606034      2.61930482133187
  H          -1.85283249500164     -2.39755659369263      0.91770992279309
  H          -2.02401448205723     -2.28164876034543      2.66917725896004
  H          -0.42354840588241     -2.19416767415738      1.93447081303904
  F           3.05361679377450      1.36815862135586     -1.16820991237920
  F           3.20789652928897     -0.44741725972599     -0.02162615385200
  F           3.01467668271240     -0.52582094922605     -2.15804636075698
