23
Coordinates from ORCA-job NEB_reactant E -44.541022341330
  C           2.41119785430062     -0.69371806908598     -0.19416526851632
  C           1.56136913668509     -1.50504443527763     -0.81931264241638
  Br          3.45999046392663      0.74994649710561     -0.86522971425700
  H           2.57248381169831     -0.81658499943719      0.86260953326980
  C           0.86819852164670     -2.58683978654902     -0.02137334907979
  C           3.79479661777015     -2.17689603906457     -3.01455206965369
  C           3.17108344041423     -1.08469269366831     -3.42583692794783
  C           1.74034303930075     -0.77222456766346     -3.11491519217085
  O           1.16776232887335     -1.58377690906899     -2.11483544079185
  C           5.22392031523732     -2.47048249599915     -3.33046148002826
  H           3.32122267874658     -2.93607485684423     -2.41078574079302
  H           3.68143486694867     -0.34706298953329     -4.02858916234164
  H           1.13671224248710     -0.97439797903732     -4.00815977480462
  H           1.63259761115195      0.29143070945890     -2.87560596761184
  C           1.55425309154203     -3.93808798892168     -0.22242962903226
  H          -0.16260045998845     -2.65125474689711     -0.37220932114758
  H           0.86448448799672     -2.32586199440264      1.03587727060400
  H           1.51567451443755     -4.22938164709017     -1.26923937869949
  H           1.04948742640143     -4.70172422156954      0.36340144975137
  H           2.59349779821877     -3.89034480391627      0.09580173271597
  F           5.80691755537010     -1.54734150372987     -4.10379304674562
  F           5.97204309109476     -2.57114887870730     -2.21618958926193
  F           5.35882956573966     -3.64793560010078     -3.97170629104118
