23
Coordinates from ORCA-job NEB_product E -44.550292523430
  C           3.03154553198890     -1.75647393832402     -1.24892697361096
  C           1.57873216439360     -2.20995618916109     -1.08911456353135
  Br          3.15251173596135      0.00311805604797     -0.38557115772750
  H           3.68417494218621     -2.40545525464527     -0.65798489189517
  C           1.16836312723290     -2.53560277647149      0.32130637863613
  C           3.46963181263402     -1.71818017641545     -2.71875506460118
  C           3.14644496245530     -0.41912176150676     -3.41139396012675
  C           2.08619921975390     -0.25449129999876     -4.17728733881335
  O           0.85823524953344     -2.34039671593554     -2.04137308155742
  C           4.96192506723856     -2.00318744822399     -2.83108075984903
  H           2.95147593618441     -2.53975382219495     -3.23022456257837
  H           3.84076590519653      0.38896784412684     -3.22515380787054
  H           1.38458358658694     -1.05200289479430     -4.35560599258150
  H           1.87328918411030      0.69361347419144     -4.63843384729799
  C           1.37675984311523     -4.03777411847016      0.54958685606515
  H           0.10966941691219     -2.30045911775943      0.43856599377830
  H           1.74674890958801     -1.96530394028042      1.04748939781982
  H           0.80265810812947     -4.61234222315784     -0.17316127572412
  H           1.04470608104901     -4.30488701115975      1.54893910984258
  H           2.42650986788821     -4.30672637686000      0.45194517147567
  F           5.72439779658667     -1.08569197289888     -2.22661006860663
  F           5.28444503025556     -3.18725380653950     -2.27319323447029
  F           5.36222652101929     -2.06403852956861     -4.10606232677551
