18
Coordinates from ORCA-job NEB_reactant E -29.695313269040
  C           2.40858182328416     -0.08442036739098     -0.63424378308348
  C           1.61272374393037      0.20709951299757     -1.67081860290594
  Cl          3.27488612731918      1.02294208913679      0.37476599490245
  H           2.59159315916124     -1.11280911957252     -0.37623436725565
  N           1.04596064531547     -0.82905029289646     -2.41327727085499
  C           3.89683521236393      1.68591128101766     -3.20138247820851
  C           3.38921058013164      2.54651219689404     -2.32412345504257
  C           1.94422291996830      2.58708695058255     -1.92587552050616
  O           1.22653618325331      1.39246554805373     -2.19789590942551
  N           5.20582700549870      1.68976848606116     -3.64764824823078
  H           3.26953973773365      0.94604884307858     -3.67920479601991
  H           4.01546868545189      3.28664622191674     -1.84840108986302
  H           1.40258692487347      3.34300888673667     -2.50927169096426
  H           1.85390257953429      2.85246682000010     -0.86602054630873
  H           0.25510330868570     -0.51326954669894     -2.95627200044334
  H           0.86413584960336     -1.67692460980620     -1.89995931372015
  H           5.83929831563533      2.23021011688261     -3.07639475386874
  H           5.57638719825600      0.78800698300688     -3.90374216820071
