16
Coordinates from ORCA-job NEB E -27.302613036770
  C           0.85468990762752     -0.37636158470604     -0.67580743842244
  C          -0.52227124160731     -0.35443934685929     -1.25591070279679
  H           1.16492197008644     -1.41877779174604     -0.53045484625253
  H           1.56599931908206      0.05981993087565     -1.38248791921397
  C          -0.73528436188653     -1.04333039634701     -2.44134675057463
  C           0.95997145229760      0.34514662492808      0.69436143910782
  C          -0.34449153691225      0.23697602335242      1.40461617442851
  C          -1.45350767236639      0.81227168122688      0.63497628379944
  O          -1.57151998073850      0.23036713111007     -0.70643496439162
  O           2.04062513946748     -0.25088459650874      1.37205723671509
  H           1.17950652766369      1.41417062849804      0.50409112741172
  H          -0.51904415002191     -0.64625352458747      1.99718114861606
  H          -1.31951766542635      1.88989702036106      0.46293657661640
  H          -2.43042461143596      0.64041708882586      1.08824522607150
  N          -0.89391010927880     -1.57371156620116     -3.45737698909197
  H           2.02425701344922      0.03469267777769      2.29135439797742
