16
Coordinates from ORCA-job NEB_product E -27.360603729530
  C           2.77122725082262      1.47317767893168      0.27528096738530
  C           1.73556977173858      1.89714636939472     -0.72818721984677
  H           2.67271118000485      0.40357840409033      0.47947672245382
  H           3.76288904908916      1.61987934238037     -0.16548212986338
  C           1.71060726713420      1.00361633586049     -1.87962397986277
  C           2.69256187463288      2.27639925759530      1.58091142626743
  C           1.49398471025248      1.84954196590504      2.38403362186097
  C           0.42481020434403      2.59888176333099      2.56976224491767
  O           1.00781698440161      2.85053466434095     -0.63725384950468
  O           3.90371954289741      2.02788870382608      2.27135383836483
  H           2.60922776569731      3.34617303769167      1.33167474768850
  H           1.57277283048822      0.85923525203581      2.81399744238995
  H           0.34278410167044      3.58190206543735      2.13701673984928
  H          -0.41860658594754      2.25343491050431      3.14262362138874
  N           1.70619874142151      0.29017777068076     -2.77423246393337
  H           3.85982531135225      2.44693247799414      3.13704827044447
