16
Coordinates from ORCA-job NEB_reactant E -27.366094941930
  C           1.58312337740115      0.08355829486939      0.02991304610467
  C           1.40678628403454      1.29234282211752     -0.51231822691480
  H           1.51696072086177     -0.10523479165964      1.08570519796697
  H           1.79430436067981     -0.75814055215264     -0.60324874098149
  C           1.51993974672666      1.42033782881328     -1.92996871200618
  C           2.82734890672406      3.58008312079539      2.78917005695115
  C           2.33120370181578      2.50706720232932      2.18731524648090
  C           0.99824097064240      2.50368264308230      1.50460864183057
  O           1.11136256610710      2.46886706027100      0.08820654981270
  O           4.01995933626750      3.66369878717997      3.40923391439346
  H           2.28357108430648      4.51171209917227      2.85497710482898
  H           2.91340765973541      1.59649734007475      2.13134233731126
  H           0.47044096266041      3.43755168744937      1.71011129029313
  H           0.38098177273450      1.66241611596106      1.84700551160235
  N           1.61939297321452      1.48525861272087     -3.06848770775246
  H           4.50107557608791      2.82980172897579      3.32653449007878
