19
Coordinates from ORCA-job NEB E -40.297408282550
  C           1.15796758751698      0.48558925621252     -0.25765074736407
  C           0.56926300319806      1.55087463349997      0.41717237406609
  C           1.03322755963994      0.36130658363782     -1.71137621103175
  H           2.10530452356798      0.12791577465317      0.13203360344441
  F           1.16972012690581      1.77861044520202      1.64619391400113
  C          -0.23335057557702     -1.01253251302874      0.85293222129604
  C          -1.44090607962357     -0.41538358909198      0.45338728455094
  C          -1.87672550974109      0.76387737031256      0.98789714427574
  O          -0.50739877251730      2.08638293665404      0.21937338025274
  N           0.11888645536944     -2.23721732215905      0.43912607268447
  H           0.24057159574814     -0.67898105597928      1.76742496136574
  H          -1.93291250399989     -0.81992922669771     -0.42011401796185
  H          -1.54588654677443      1.08985417300541      1.96028253605799
  H          -2.75882837081669      1.24198954697661      0.59991427427568
  Br         -0.66523637558448      0.86584886745239     -2.47613049466726
  Br          2.43816872765178      1.53350573435969     -2.62201727508730
  Br          1.44616347758479     -1.45595275334301     -2.31742769848190
  H          -0.31727377968013     -2.62619335698848     -0.38253148327798
  H           0.99924545713166     -2.63956550467793      0.71151016160115
