19
Coordinates from ORCA-job NEB_reactant E -40.326058213360
  C           1.60741144868822     -0.01830928625509     -0.01630505160653
  C           0.82020249075792     -0.45307339929812      0.97765445911875
  C           1.98131948559005     -0.95041892712422     -1.08722196027852
  H           1.95994321838354      0.99771118502939     -0.03716047148497
  F           0.47670506885633      0.36840102463178      1.97749244885112
  C           0.11442169060834     -4.54846990776662      2.35370402275288
  C          -0.70402362647104     -3.56781828487871      1.96427194851415
  C          -0.38168565230721     -2.13351815786435      2.18835180703877
  O           0.35512468862206     -1.67628202910304      1.02670948057793
  N          -0.13284053075498     -5.88497227224508      2.20607720058052
  H           1.01741545377273     -4.31909581445779      2.90429782959967
  H          -1.59310507950683     -3.78479327718653      1.39364103113918
  H           0.25176935064483     -1.99545784751721      3.07069606336077
  H          -1.28327777565743     -1.52108891869111      2.28688889719761
  Br          3.16060208732890     -0.11488188007332     -2.37583013652418
  Br          2.90080486091377     -2.54999937142377     -0.37944607337368
  Br          0.40306436598845     -1.63551791940071     -2.06075449414437
  H          -0.85015708421294     -6.13447046170474      1.54343451485776
  H           0.65930553875529     -6.50424445467077      2.22559848382316
