17
Coordinates from ORCA-job NEB E -42.402613830960
  C           0.98428848595059      0.44978862709344     -0.38093187466208
  C           0.00575023359428      1.44006188046876     -0.24107330262205
  C           0.92828275393489     -0.40653505629963     -1.62998565983943
  H           2.01452416785070      0.71705526847113     -0.16143937052279
  Br          0.49358516097429      2.93247506205359      0.91371388583829
  C           0.42868697366594     -0.75386915950514      1.06783952670687
  C          -0.92988140183668     -0.93911516587435      0.82107339727897
  C          -1.77911997898314      0.19981103571346      0.83702153152784
  O          -1.23126242836296      1.19547433857157     -0.34825283696232
  F           1.23709107877837     -1.81513539266256      0.95573469857774
  H           0.77301313908541     -0.10755216657306      1.87398842316461
  H          -1.22617633745679     -1.81265799401250      0.26053112908306
  H          -1.68677362345930      0.87182648008026      1.68772688954037
  H          -2.80544442961152      0.03724576371013      0.53440329351168
  F           1.83926525533909     -1.38121455741262     -1.61257704673141
  F          -0.25414544520834     -0.97634479030069     -1.86925077392838
  F           1.20831639574515      0.34868582647823     -2.70852190996098
