17
Coordinates from ORCA-job NEB_reactant E -42.431272769270
  C           1.68352218283968      0.01733253687232     -0.06987975925004
  C           1.00782766330251     -0.08899356972810      1.07899065189293
  C           2.13461455400130     -1.20232552648548     -0.80204235746194
  H           1.93207624221424      0.96589157662347     -0.50822309412512
  Br          0.46125489816313      1.51284960895802      1.95356099930253
  C           0.11000562242642     -3.34619496605748      4.25744982266940
  C          -0.25118906916404     -2.79385490302692      3.11481301330429
  C          -0.06163065660930     -1.34285026183791      2.82028558349227
  O           0.71435787663283     -1.24870875292208      1.62931966091679
  F          -0.08801680259210     -4.64214478479375      4.50331507465293
  H           0.56221020996760     -2.83760568107354      5.09787869834187
  H          -0.68655402389388     -3.39146478663240      2.32868912506794
  H           0.45470528026116     -0.84011652220563      3.64692857941929
  H          -1.03618103383503     -0.86107834650982      2.65911437481591
  F           3.01191973147405     -1.94306057357043     -0.10013148279866
  F           1.12232274961010     -2.03117347988544     -1.11610720688432
  F           2.73895457520134     -0.88470156772483     -1.95276168335606
