22
Coordinates from ORCA-job P E -45.400662814410
  C          -1.14002541678946      0.61401021287495     -2.22292390587546
  C          -0.51509942411901     -1.74663030870807     -0.50904174921120
  C          -1.05738648987284     -1.84527945042978     -1.89927153619390
  C          -1.34373346149757     -0.80870826597950     -2.66649843210042
  C          -1.01374844973155      0.71418039173527     -0.69950028533901
  C          -0.04209078393338     -0.33208972220737     -0.15391504834850
  H          -1.21884467836804     -2.84809457262618     -2.26522440563263
  H          -1.72313546282628     -0.94014784060785     -3.66831127391922
  C          -2.30921892280971      1.47117591515892     -2.69035558586801
  H          -1.29690246430570     -2.05351285224964      0.19187656204670
  H          -0.25071334668946      1.02545972665545     -2.71725800527587
  H           0.31281949457883     -2.45012368538178     -0.39270952919943
  H          -1.99404786679807      0.53004636476330     -0.25466556184304
  H           0.00822409195749     -0.23122489151627      0.93564137477688
  H          -0.69406221505154      1.71886147622348     -0.41504255066000
  C           1.38917822330759     -0.09102754714029     -0.63684545161385
  F          -2.44578344180557      1.47217614671992     -4.02298824933161
  F          -3.48388900594469      1.06570221933248     -2.18527069943588
  F          -2.16656291939583      2.75765279361130     -2.32436740966149
  F           2.25416950813025     -0.83688852102357      0.09693073740220
  F           1.58808869154904     -0.46188819008050     -1.92302188200100
  H           1.70087434041550      0.96197060087574     -0.54262711271527
