21
Coordinates from ORCA-job NEB E -46.051660602190
  C           0.30318979988866     -0.55688081409611     -0.73755530935086
  C          -0.98695083026528      0.00371862072139     -0.71082707235460
  C           0.49262745348648     -1.98111192133707     -0.28770311289880
  H           0.89705961029658     -0.37707941120255     -1.62972596806156
  C          -1.32449157038988      1.10432032597338     -1.70189277601687
  C           1.18451944562517      0.52417020176717      0.68254994130104
  C           0.29967434165747      0.31630978670461      1.75435931692651
  C          -1.02145721767730      0.76264562389425      1.67021465961263
  O          -1.72580298397101     -0.11792659738954      0.32185579929929
  O           2.43927029545787      0.03408024253777      0.82131095160872
  H           1.10728225673186      1.45747220706163      0.12578028577868
  H           0.55189868497897     -0.47579628773327      2.44186202516286
  H          -1.21034736087148      1.74758378784734      1.26039227626615
  H          -1.69712717004039      0.47759530133443      2.46210907861774
  F           1.78920248577432     -2.33134254724711     -0.26713168477758
  F          -0.01511135585938     -2.30067536153809      0.89894135031861
  F          -0.08634770375329     -2.81730144008726     -1.17961780262314
  F          -0.20796911745976      1.56170439098851     -2.35592593683106
  H          -1.77713745452447      1.95757669401568     -1.18440692313014
  H          -2.01776157211250      0.73387221775619     -2.46510357403634
  H           3.00577996302736      0.27706498002865      0.08051447518873
