21
Coordinates from ORCA-job NEB_product E -46.084245236680
  C           2.95589431694773      1.54844436471359      0.61689856787110
  C           1.68416096704215      2.37513779172729      0.36309842633090
  C           2.72363148674249      0.05143024116332      0.48218739464768
  H           3.68456808679435      1.82569637435145     -0.15709851159671
  C           0.79715069677012      1.87133523825860     -0.76248224266013
  C           3.59759771641574      1.92791184140898      1.99637732621866
  C           2.87769750765116      1.25069430459337      3.13070011140075
  C           1.89013098268886      1.80661565936951      3.80570669430928
  O           1.43984655263630      3.36534103338276      0.98515325235804
  O           4.97451577456372      1.68131690406670      1.98806523420746
  H           3.49401061382046      3.01465593093686      2.08698617921169
  H           3.22651967509072      0.25402146496450      3.37187378860110
  H           1.53748574309199      2.79774800688779      3.57602269359706
  H           1.39245332622480      1.28664430244213      4.60543819876207
  F           3.74509507448907     -0.67113807842423      0.96235488277367
  F           1.62554035514173     -0.37874902237465      1.11882351592226
  F           2.58199674728494     -0.32670216036498     -0.80217047677905
  F          -0.17206392619420      2.78733940200508     -1.04137729838650
  H           0.29064789221499      0.94381988458396     -0.46933847037154
  H           1.37130167503528      1.70764958642058     -1.68148425859628
  H           5.14541873554759      0.74358692988738      2.14236499217848
