21
Coordinates from ORCA-job NEB_reactant E -46.089718136790
  C           1.65345889067243     -0.24552180017137     -0.20813240668991
  C           1.75639839954238      0.89924357857852      0.48503095752993
  C           1.51696207554371     -1.56072313484522      0.48031093443601
  H           1.66507899667133     -0.27754136185427     -1.28097761473749
  C           1.95321623020024      2.20384582779945     -0.24886405259912
  C           3.84612563834732      3.58739590879527      2.44551664950532
  C           3.37052525205380      2.37227724031872      2.68718497360440
  C           1.91700858626247      2.01924697299797      2.61351727986107
  O           1.68531525655257      0.85700266092476      1.81790862949408
  O           5.13836966334892      3.96186097294210      2.51699758450594
  H           3.21095985621536      4.41971665802071      2.17333150016963
  H           4.03178161989214      1.56009868209736      2.95918770083761
  H           1.32011169044723      2.86608685774074      2.26496491661516
  H           1.55373603897330      1.71573686100225      3.60071504245416
  F           1.48615081867641     -2.57347201036214     -0.40065918739919
  F           2.54104921695045     -1.82482596534236      1.31636806783785
  F           0.40077197075053     -1.67190744491081      1.22072948518309
  F           0.90136709918281      3.06227267443121     -0.02966961564546
  H           2.00214021578170      2.02960462940894     -1.32564365097617
  H           2.85694615341087      2.71670448784218      0.09961437543549
  H           5.69052633052399      3.21689770458599      2.78906843057761
