18
Coordinates from ORCA-job NEB E -38.425981526050
  C           0.43464135874485     -0.33143328514496     -1.00325250070058
  C          -0.63713691184394     -0.71349876788154     -0.03341046592954
  Cl          1.47457062057076     -1.74282602765933     -1.26952094865156
  H           0.15123595601730     -0.10997412326748     -2.03103268570499
  C          -1.27391795103058     -2.04866551982533     -0.10357776294100
  C           1.24354001044829      0.85927948329255     -0.35617266677499
  C           0.33260850248680      1.85351757442077      0.17275782369106
  C          -0.76406968302118      1.36567633518410      1.04108322822439
  O          -0.90022636450554     -0.02721068033622      1.08361035890805
  O           2.02379702003092      0.21209266374624      0.65020185969360
  H           1.91082632613695      1.33167858546727     -1.08414935984116
  H           0.40714975733199      2.91959906267991      0.18306908668122
  H          -1.73107628345094      1.71303598561670      0.63476890613715
  H          -0.70542428242216      1.75486827918574      2.06385722842086
  F          -1.75199756204869     -2.45160855569550      1.08189947287854
  F          -2.40682783452004     -1.88804724187908     -0.97095978643692
  H          -0.76875682329730     -2.93515523733262     -0.50645774642614
  H           2.96106414437250      0.23867146942875      0.44728595877203
