18
Coordinates from ORCA-job NEB_reactant E -38.505241218030
  C           2.49341957494039      0.40523693105516     -0.70747242691655
  C           1.46271734835828      1.02765446701702     -1.28600007746673
  Cl          3.61796658148583      1.04655546868037      0.43178985828746
  H           2.69768243229253     -0.62594581208622     -0.94187102833815
  C           0.61539300682069      0.21465664141864     -2.25606251851389
  C           2.80243267424787      4.88671821632547     -2.06453288338147
  C           2.83740765104300      3.80610110221587     -1.29490676118577
  C           1.65048167111477      3.32402789312161     -0.52305116005090
  O           0.96192477699888      2.26650916531752     -1.19690226373262
  O           3.82259117354420      5.37023030127740     -2.79726097439753
  H           1.92143285382439      5.50567303421279     -2.15768425235266
  H           3.73480206826453      3.20525681269187     -1.23611462567855
  H           0.89638654490561      4.11099397915949     -0.45645874585396
  H           1.93307993217461      3.00647590365702      0.48386530950286
  F          -0.68488994802281      0.23561536076828     -1.89290303127237
  F           0.67573378482117      0.74817334486825     -3.49772869600910
  H           0.93131720106667     -0.83680496921884     -2.32518347370024
  H           4.59572067211939      4.79657215951829     -2.71292224893983
