18
Coordinates from ORCA-job NEB_product E -38.499988907470
  C           2.14556420930013      1.81132623549780     -1.68485376475615
  C           0.82085557860656      1.45384952747406     -2.32618223039152
  Cl          2.09517705515580      0.91855408888666     -0.13910499705294
  H           2.99357966835781      1.44117444252234     -2.26419448800202
  C           0.76874898767812      0.03394699402149     -2.93472820869577
  C           2.28658315504438      3.32000887077388     -1.45237751224059
  C           3.43191003582519      3.61387513646385     -0.52216967258981
  C           3.28599158868542      4.15156418106149      0.67307740023358
  O          -0.15313258087001      2.14477580220961     -2.30339300710939
  O           2.50937672671811      3.85120574869835     -2.74328279984120
  H           1.34414279894483      3.70020169470045     -1.03032171886132
  H           4.40632844420607      3.36321552142593     -0.91773920639560
  H           2.31447753840199      4.40315032924615      1.06639559317230
  H           4.12836235678204      4.35059783237016      1.31232696398284
  F           0.01396979109207      0.02873695727706     -4.04964467137815
  F           1.99220483676475     -0.41976181875047     -3.28441272370091
  H           0.32945365940342     -0.67973542938845     -2.21645521463313
  H           2.52590614990333      4.81261388550964     -2.68803974174022
