20
Coordinates from ORCA-job NEB E -33.637787252810
  C           0.54833145814342     -0.80047865025143     -1.20792941762641
  C          -0.39061394734731      0.15580770227540     -0.83524432624919
  N           0.23890279034190     -2.16166965802247     -1.21878808778985
  H           1.38021078991211     -0.49050830706442     -1.82250308143565
  O          -0.03090814329108      1.45463301099689     -1.08936511513022
  C           1.47226640504005     -0.73895781491213      0.80184396730299
  C           0.60642669554017     -0.04740561110575      1.61549946520874
  C          -0.73777891021012     -0.44425395912664      1.64436986110887
  O          -1.33741916957527     -0.10236178670915     -0.02252705245043
  F           2.70038991842389     -0.23397015758037      0.58461244002515
  H           1.47109472372328     -1.81757127234733      0.72007175259574
  H           0.85692111824504      0.97998781995364      1.84494206027468
  H          -1.44034441964063      0.13767994080500      2.22087300951920
  H          -0.95331421268613     -1.50238472285043      1.61175303890329
  H          -0.71873475274672     -2.33616803601508     -0.94342790681347
  H           0.49109656428000     -2.64080548088997     -2.06971296617350
  C          -0.88136240324819      2.44894865819955     -0.55451613089481
  H          -0.48921314217318      3.39778119882342     -0.91321271911617
  H          -0.87802448471253      2.43295549102411      0.53768064423800
  H          -1.90792687801869      2.30874163479716     -0.90441943549694
