20
Coordinates from ORCA-job NEB_product E -33.697818338340
  C           3.15517038145019      0.24130488831728      1.11160657076104
  C           2.20283254158320      1.43930703957890      1.05605632830986
  N           2.48047719867805     -1.01801621932865      0.88477446358745
  H           3.94498619605360      0.38080349174684      0.36646615112075
  O           2.84082365478514      2.56669523390117      0.76593297226017
  C           3.83084349941787      0.19435517133078      2.50638102586393
  C           2.83444022105671      0.30651467888116      3.61838076224052
  C           2.26202583149580     -0.73365736286314      4.19367651927505
  O           1.01676558818845      1.35189893084435      1.24952009384301
  F           4.73979327272071      1.22805778891162      2.58851939646179
  H           4.40343449453734     -0.73872930112948      2.57064612827582
  H           2.59408161499051      1.31920253031093      3.91031833249684
  H           1.52557699124047     -0.61494044023776      4.96895894709741
  H           2.50491287521852     -1.74299719334897      3.90525871613790
  H           1.68792329801861     -1.08654076248299      1.51801510176479
  H           2.10980076092753     -1.05018361883288     -0.05896465288981
  C           2.05522006371106      3.75196026146843      0.73350878720802
  H           2.72974412489482      4.55450436001155      0.44835646638596
  H           1.62278797327244      3.94566978553755      1.71694387896083
  H           1.24645941775896      3.64859073738329      0.00724401083869
