20
Coordinates from ORCA-job NEB_reactant E -45.580293512380
  C           2.46708843357943      1.30304953683731     -0.55275088935496
  C           1.34010885784923      1.83994418871878     -0.08224291638683
  Br          4.11354013846082      1.01722812160723      0.33201640549522
  H           2.50925589876040      0.96498418773161     -1.57400372606624
  C           0.17856899218643      1.98098597425269     -1.06034685166124
  C           2.89828701311719      4.43004032918628      1.01423125143538
  C           2.93339537234103      3.51352363523106      1.96666985446316
  C           1.87984859079901      2.46999658452767      2.18054152076484
  O           0.96834360858941      2.33909014442109      1.10624182062707
  C           3.96894665404751      5.45998322356597      0.82296233922424
  H           2.08394030214854      4.51515513239793      0.30886529784145
  H           3.75706230926163      3.47350079478162      2.66495941841659
  H           1.24906398122832      2.76514185768189      3.02672205925325
  H           2.33981093710219      1.50630545122836      2.42472364067608
  F          -0.98125850433095      1.60533610201160     -0.49142884492108
  F           0.03804269716575      3.28330521227270     -1.40962642789582
  H           0.31540592662304      1.39858038548136     -1.98326785127769
  F           3.42989778052350      6.70608734483564      0.78309392087820
  F           4.86514961053384      5.46533161286328      1.83654330907451
  H           4.53000140001367      5.31933018036593     -0.11800333058612
