21
Coordinates from ORCA-job NEB E -54.387642911870
  C           0.51465332923239      0.14224047546544     -0.82021075272255
  C          -0.41395035865552      1.06428078049237     -0.29490541329194
  C           0.11748561407466     -0.63869281798648     -2.05003831985702
  H           1.53491871474714      0.50031331674677     -0.93537149824134
  C           0.14173967652637      2.32960406033974      0.34417064638093
  C           0.52670273320093     -1.27865983122176      0.53931849233612
  C          -0.48447486752502     -0.96220322658436      1.46325497848262
  C          -1.77234975128902     -0.71258005478292      0.93628443669419
  O          -1.58749138415879      0.69991066915067      0.05432186871539
  C           1.87581086638878     -1.29801358052963      1.00334295905995
  H           0.31283977959015     -2.08033824304862     -0.16192831087653
  H          -0.19862069385228     -0.46194065619534      2.37883307449209
  H          -2.54527862991904     -0.40369748624274      1.62861325155203
  H          -2.13383796591475     -1.37636546635747      0.15802409173613
  F           1.01507528669102     -1.58875781136357     -2.35169319636279
  F          -1.06758423342714     -1.25290131772515     -1.97098361869145
  F           0.05590453866756      0.17311995785224     -3.11386442777854
  Cl          1.14575176081122      3.21051150207809     -0.82139195249204
  Cl         -1.17032038103754      3.36243374998088      0.90318663643391
  Cl          1.17111143125526      1.88242977164365      1.75117011461021
  N           2.96191453459363     -1.31069379171180      1.35986693982065
