21
Coordinates from ORCA-job NEB_product E -54.429637988530
  C           2.19240258377528     -1.12290083352774      1.25035359186987
  C           1.78220132534614      0.25355766052417      1.75360335363066
  C           1.35825310480260     -1.52097996559026      0.02677068156632
  H           3.23800603167157     -1.11808415269396      0.92777441440535
  C           2.90492311083841      1.30464697422496      1.76874855961613
  C           1.99715490860077     -2.17797848740613      2.37754663503680
  C           0.54538564780969     -2.44389771491912      2.69758290147758
  C           0.01003764335129     -3.64722093663405      2.63108833308931
  O           0.67454826894634      0.53518646549749      2.09340997608785
  C           2.64221403389496     -1.72787298814254      3.59548951018256
  H           2.47954947685669     -3.11103145824544      2.06009659216374
  H          -0.03189646650804     -1.58101117782439      2.99519508422427
  H          -1.02567542476444     -3.81022180813645      2.87010784695377
  H           0.57683375166812     -4.51473402217300      2.33342291099856
  F           1.70040332096639     -0.79499372773460     -1.04414047796386
  F           1.57968296743331     -2.80330841910437     -0.29969860974050
  F           0.04609070476497     -1.38299454993616      0.18540559164770
  Cl          3.06144806323839      1.78588758234175      0.05079302286937
  Cl          2.43068531043693      2.69134041857446      2.74462627048102
  Cl          4.45217573494544      0.66333450391910      2.34707056775453
  N           3.10967590192519     -1.39992336301370      4.58385324364899
