20
Coordinates from ORCA-job TS E -36.212791148100
  C          -0.92315058608892      0.53053498256802     -1.38071264131689
  C           0.34961195976955     -1.76329111751243     -0.21990191288159
  C          -0.98616850126256     -1.71373447529917     -0.44822171717219
  C          -1.61688617156381     -0.60550513766201     -1.04468963574977
  C          -0.28488597382477      1.10736148318276      0.67928963906073
  C           0.52159489256461      0.14677862298889      1.21209909193944
  H          -1.62546563037650     -2.46719958746034     -0.00944232343315
  H          -2.69807048402554     -0.57438122751552     -1.05070474070577
  C          -1.61170726793584      1.67766912206613     -1.82511043876053
  H           0.76780438824338     -2.57912522541997      0.34569806775658
  H           0.12353071309347      0.50071818634168     -1.64720883628491
  H           1.04637646347753     -1.20394755457355     -0.81835700066589
  H          -1.31193618379060      1.17004404601097      0.99017010651283
  H           0.13823726683491     -0.55533376709173      1.93714278487110
  H           0.13485855209851      2.00177916252186      0.24729939676158
  C           1.99326721603084      0.32187399754457      1.24098340148621
  N          -2.17234837793250      2.62414435930800     -2.14849488908095
  Br          2.45951245567451      1.70498346247472      2.62979356287369
  Br          2.95539995258608     -1.29206869006855      1.75524680896373
  Br          2.74042531642766      0.96869935759567     -0.44487872417426
