21
Coordinates from ORCA-job NEB E -40.961250970490
  C           0.82045640817173      0.75932451077571      0.51700409632599
  C          -0.19051562914303     -0.14146046894535      0.94711850316691
  N           0.44669504349663      2.13517900145507      0.33155426670436
  H           1.79051027329574      0.66212711463357      0.99325819012486
  O           0.22332391453542     -1.08607968002917      1.80976824518236
  C           0.96797516821377      0.17861098853184     -1.36339502823610
  C          -0.34100029398169      0.35649485857960     -1.82793683140381
  C          -1.34869255108904     -0.45470286736222     -1.25884057090993
  O          -1.34590175984668     -0.19133344028126      0.42388558512699
  C           2.00732749913917      0.99221763931408     -1.89971693268638
  H           1.30650216611986     -0.82785720277833     -1.12863325554437
  H          -0.61540032174919      1.29665936540811     -2.27944158435191
  H          -1.16694864051676     -1.52414925770493     -1.21547957749199
  H          -2.37264529177319     -0.20131424167859     -1.49597786523875
  O           1.24890104070396      2.96295025894670      0.70629917852198
  O          -0.63119944405866      2.37155850698474     -0.16784189319899
  C          -0.73768145797202     -2.04620515000148      2.22673571168025
  H          -0.30340085734358     -2.54451684674483      3.08965320141325
  H          -0.92757142961151     -2.77260639573050      1.43331352949222
  H          -1.67566385180129     -1.55908478797905      2.49847026115427
  N           2.84493001521036      1.63418809460630     -2.33979722983122
