21
Coordinates from ORCA-job NEB_reactant E -40.994984535280
  C           1.84846311635788     -0.09983662350904     -0.16086045214392
  C           1.51008177284824     -1.41667204812903     -0.30946722652813
  N           1.49452379773202      1.00792448770517     -0.92565336048055
  H           2.42318048671335      0.14603165987841      0.71849483838837
  O           1.80576411818759     -2.18224144743036      0.74448894241561
  C           2.77411084434087     -1.75103084740876     -4.45997857401520
  C           2.44578610885393     -1.59280602349819     -3.17863107071352
  C           1.04423316987122     -1.65170687292854     -2.67194240427775
  O           0.97599136241776     -2.09276063770550     -1.31761362856516
  C           4.10643374764942     -1.66746984556627     -4.90830523038369
  H           2.03224881047971     -1.94975733315168     -5.22206532625489
  H           3.21345081005736     -1.38658555172060     -2.44298988350614
  H           0.44717960680676     -2.38259648615995     -3.22226736629620
  H           0.57463476492717     -0.65911814029190     -2.76895923904535
  O           2.10072781157746      2.04190823884166     -0.71666099346211
  O           0.57657569898774      0.91689970414462     -1.73776867230224
  C           1.57917016818821     -3.58171087999751      0.65523000972151
  H           1.93621240449310     -3.98893031950477      1.59796040354532
  H           2.13482213487744     -4.01851646290537     -0.17722627093895
  H           0.51631443281045     -3.79707510121717      0.53146237390448
  N           5.18969483182233     -1.61134946944523     -5.27874686906150
