21
Coordinates from ORCA-job NEB_product E -41.011058260630
  C           3.01639509269940     -1.37345899700687     -1.46979746279333
  C           2.10221216940033     -2.48641183484177     -0.92491351113562
  N           2.79588812312469     -0.11725891189193     -0.70827609813693
  H           4.06038278568622     -1.66966921453490     -1.30376942139701
  O           1.83457583723106     -2.28016361896377      0.35204191469868
  C           2.75406381998545     -1.18479605690565     -2.98393262051812
  C           1.40880128607877     -0.56460739672378     -3.28271721165879
  C           0.36256743144211     -1.28346470897565     -3.64168692020751
  O           1.73430562397034     -3.41832618886136     -1.58083156533048
  C           3.80586568818383     -0.38134138186326     -3.57039511424180
  H           2.79108525785678     -2.18963992218818     -3.42559668636383
  H           1.34798409354804      0.51003141346268     -3.19022195240315
  H           0.41140115850386     -2.35629131569749     -3.73379683726341
  H          -0.58856736351036     -0.82289478257539     -3.84280482581759
  O           3.75093488587821      0.34717203570373     -0.14211426647646
  O           1.68177845234797      0.34055403300768     -0.71726777403515
  C           0.99406633132375     -3.23353671243206      0.99678576225733
  H           1.00960121653335     -2.98045950286126      2.05310181804847
  H           1.37390672098620     -4.24304222684190      0.83195313272833
  H          -0.01984919846417     -3.16158825090358      0.60071157744272
  N           4.62090058719418      0.26709354189471     -4.03807193739634
