15
Coordinates from ORCA-job NEB E -23.183196135860
  C           0.84248708568451      1.22237890840070      0.34769198948898
  C           0.66523124750472      1.07951924221579      1.66578124451601
  H           0.67223081937227      0.06873826700248     -0.40153598473294
  H           1.49781249196007      1.82573947298916     -0.24295765135077
  C           0.79615430899567      2.57448525015345      1.78835870659265
  C           0.53436849391889     -0.96681149650770     -0.92662803965807
  C          -0.87021538087432     -1.06439168676697     -1.35698250960139
  C          -1.80988739539191     -1.67074120865391     -0.64500990611279
  O           0.29762419249620      0.36709326830727      2.56554665502212
  H           1.24320483463066     -0.96509091789103     -1.75044540081611
  H           0.79911490482415     -1.70183190953132     -0.17169382522529
  H          -1.11819965458742     -0.58153783634391     -2.29299002733116
  H          -1.58577293110961     -2.13971604258891      0.29865153040558
  H          -2.83142741880074     -1.72203727397362     -0.97822139098652
  N           0.86727440137685      3.67420396318853      2.10043460978970
