15
Coordinates from ORCA-job NEB_reactant E -23.291322616160
  C           1.30897982350600     -0.11477857637760      0.06670962522884
  C           1.32971164577086     -0.81141498423297      1.20718165171173
  H           0.98836082845868     -0.52749513790181     -0.87239032541164
  H           1.62421151337618      0.91220054140640      0.06610461719238
  C           1.78630101363860     -0.16044508266672      2.39284673547584
  C           1.62352771456134     -4.55731384342451     -1.08040501323148
  C           1.58907400065783     -3.35164936682862     -0.54724407461126
  C           0.48464276687133     -2.86470731293570      0.34685590807911
  O           0.95665820031597     -2.09408164380119      1.43512680574537
  H           2.42533928546522     -4.86781664329558     -1.72729799612064
  H           0.84554730980968     -5.28058185195188     -0.89958794408318
  H           2.38320563345218     -2.64097774122030     -0.73158773700270
  H          -0.03389646711197     -3.71008675954865      0.80640825300157
  H          -0.24798228547359     -2.28439576616679     -0.23463910450428
  N           2.15721901670168      0.39354416894591      3.32331859853035
