15
Coordinates from ORCA-job NEB_reactant E -26.431630577510
  C           1.36337245517342      0.27198867616536     -0.15919274464257
  C           2.28559108959797      1.21415524814126     -0.37554339964747
  Br          0.13477407692457      0.44809207974385      1.26318624328352
  H           1.26822301909097     -0.62384199043680     -0.74348829771042
  O           3.18791479110146      1.14248628430582     -1.38969247456117
  C           1.49485389971110      4.05058782349016     -1.62460626670979
  C           2.71659641267717      4.13657033025359     -1.13563512757502
  C           3.23816997858664      3.33667830441344      0.02342178837805
  O           2.38124817778166      2.28176868790912      0.42561789764958
  H           1.17624237338638      4.65003677145133     -2.45920480153283
  H           0.75921792561587      3.38201315488827     -1.20879353558364
  H           3.44293541104673      4.81954639860027     -1.55355734658322
  H           3.31888490860741      3.97435885270325      0.90989824763228
  H           4.23370731149886      2.94394750731360     -0.21716815107876
  H           3.04866816919979      0.34301187105747     -1.90794203131852
