16
Coordinates from ORCA-job NEB_product E -25.557386476470
  C           2.46354637838193      1.54665403590322      1.27195118489248
  C           1.50001998765241      2.62974329972902      0.79784459251698
  I           1.61218926567197     -0.39852286419314      0.78458886552704
  H           3.38781895851385      1.59545451827130      0.69232841930338
  N           1.31839438201013      2.67188848610465     -0.53975308689708
  C           2.74754836097247      1.65324705256068      2.76157137175275
  C           3.76247793790529      0.65104913716717      3.20908228863799
  C           3.52252781888445     -0.30231081484977      4.08901102693040
  O           0.98291737502355      3.41249718850434      1.55812907406033
  H           3.11903309577357      2.66779770354498      2.94280651823375
  H           1.81748399962625      1.53893881433077      3.32130768520682
  H           4.73632962792286      0.73708757187295      2.74250034781410
  H           2.55935200144987     -0.40767840562499      4.56089844507152
  H           4.27538887470011     -1.01524786885560      4.37778135800050
  H           0.65822287134826      3.33490619541853     -0.91093821881516
  H           1.67444906416305      1.96059595011589     -1.15450987223579
