19
Coordinates from ORCA-job NEB E -49.250997656970
  C           0.88718358283826     -0.14056560710933      0.33833620740354
  C          -0.01661688281746     -0.82625484978885     -0.64341944085221
  C           0.51754036727037     -0.44897073236241      1.79545031646518
  H           1.91638139676621     -0.48710950526493      0.19564833563292
  N           0.49955450946520     -1.88801999388098     -1.42263432214141
  C           0.68961437072717      1.33100257188516     -0.05500930517217
  C          -0.60197483612391      1.38606564377944     -0.78380508619709
  C          -1.76699884476040      0.51508476223327     -0.49388253222888
  O          -1.35459273266197     -0.82106980616113     -0.50240753767468
  F           0.71262058604543      2.22984171133655      1.00041214657259
  H           1.51462725992271      1.64178099120089     -0.70820799747263
  H          -0.84659841433018      2.36093645723484     -1.18740020539790
  H          -2.52456780505700      0.59565466766326     -1.28185381302434
  H          -2.25980571592135      0.80326749187799      0.44930024906800
  F           1.42713379466541      0.03358804397312      2.63956521912098
  F          -0.66754359980637      0.05494716463460      2.15943457833962
  F           0.45110704988456     -1.76883277474933      1.99926652180644
  O          -0.29280722911189     -2.55363834447245     -2.05717787374821
  O           1.71574314300522     -2.01770789202971     -1.44161546049975
