19
Coordinates from ORCA-job NEB_reactant E -49.295143475300
  C           1.96071933143136      0.23297090626512      0.00468836446517
  C           1.65273056115113      0.51250316342171     -1.26599910398217
  C           1.43659567146829      0.84690720353307      1.25915993633822
  H           2.66164194201026     -0.57398698198945      0.17126426063621
  N           2.33157386676053     -0.35174999161379     -2.29802369187681
  C           1.39780585830893      4.60007664389186     -2.20325811424038
  C           1.36922154692829      3.63348195237593     -1.30380787113576
  C           0.33402988807938      2.55239530891717     -1.33323506669528
  O           0.86998874637843      1.35230683842986     -1.90459844996341
  F           2.33045074890276      5.55160913231333     -2.18039513712160
  H           0.69485023856093      4.73521056329109     -3.01357279419593
  H           2.12553114450968      3.58878048517452     -0.53484025610119
  H          -0.47849878542597      2.81723011152275     -2.01280893675292
  H          -0.07575759256222      2.36740523345103     -0.33904606998988
  F           1.77256892340117      2.14448413936069      1.40517445472566
  F           0.09164607732495      0.80805460187254      1.34788373011940
  F           1.90649747719958      0.21239475534447      2.33263476898683
  O           2.16471423503482     -0.03458427615652     -3.44084474447646
  O           2.98139012053771     -1.27958978940540     -1.89407527873969
