20
Coordinates from ORCA-job NEB_reactant E -33.383928919620
  C           2.39293957166481      0.19604176260815     -1.33551259182079
  C           1.27196888594685      0.83081140096522     -1.66840783626685
  Cl          3.86274035423899      0.86712966558721     -0.72756158927934
  H           2.44528884585905     -0.87392133810881     -1.44618850255243
  C           0.08606698746805      0.04018799208297     -2.18445209190314
  C           2.96794626406436      2.89134468976211     -3.48995537456759
  C           2.94950507682619      3.35819566485093     -2.25357961227940
  C           1.84400114159566      3.13639582546942     -1.26210642860764
  O           0.90992165514542      2.13599078701125     -1.63489873902458
  C           4.07736687380976      3.11387742086163     -4.45992252658719
  H           2.14244640903850      2.29449374888975     -3.85591526107582
  H           3.76573660139235      3.95787966754613     -1.87545770927826
  H           1.23400607715881      4.04455534230528     -1.18199704342254
  H           2.26104450371316      2.92158093530953     -0.27186669734647
  F           0.34043928352197     -1.29784812066243     -2.26446952474321
  H          -0.18329623134012      0.38331873906505     -3.18966471456975
  H          -0.77010975456127      0.17300996117699     -1.51377103812113
  H           4.85952308597016      3.73005969698866     -4.02412996432244
  H           3.69938834222291      3.60218771153921     -5.35762362455508
  H           4.50757602626441      2.15890844675174     -4.76051912967636
