17
Coordinates from ORCA-job NEB E -29.443958484210
  C           0.68882470426490     -0.41714517551520      1.11048732022333
  C          -0.67632258063822     -0.32208200890763      0.80377166424296
  I           1.48438577265983      1.01500768813600      2.47283989176597
  H           1.11462374250058     -1.39189151238354      1.31321627662250
  C          -1.40217683383994     -1.53977388104900      0.30189379862199
  C           1.39610262973085      0.07593474050625     -0.59692009565871
  C           0.82651529941180      1.32446558643593     -0.85695101516015
  C          -0.58906656383899      1.39965200351711     -0.91518754404710
  O          -1.14949025426275      0.85299146089177      0.52479552942763
  F           2.73060861612442      0.02237631589552     -0.41943746647266
  H           1.07083402315378     -0.80572101792448     -1.14893264525716
  H           1.38515044632685      2.19326397331879     -0.54185847095582
  H          -1.08894955915491      0.70170593115463     -1.58315744451797
  H          -1.01145810937624      2.39510242363564     -0.96180738863459
  H          -1.31476007469420     -1.60449881077441     -0.78683125608965
  H          -2.45937649103551     -1.45051013467145      0.54140847474550
  H          -1.00544476733224     -2.44887758226594      0.74267037114392
