17
Coordinates from ORCA-job NEB_product E -29.492742213790
  C           2.36275857610544     -0.24821248614497     -1.98210456795236
  C           1.17215844282647     -1.15157187024096     -2.29135194498576
  I           1.70696251722621      1.00376974597321     -0.35128096077196
  H           3.21708846461980     -0.81481629990982     -1.61081740021257
  C           1.18291270265169     -2.45697897846849     -1.55168320607074
  C           2.76900500087041      0.59015937636072     -3.19408831918778
  C           3.81625093516275      1.61272770843166     -2.88256700382540
  C           3.59037994274293      2.91236995939878     -2.88217527726913
  O           0.31170657727133     -0.81235032905885     -3.05660366210599
  F           3.28146592431087     -0.31398997579584     -4.11342422798067
  H           1.88035343492782      1.03595260348289     -3.65758498245188
  H           4.79051432966636      1.20225398454558     -2.65508368410704
  H           2.62060443428522      3.32018420183647     -3.11585431850375
  H           4.36272461261621      3.61961866201425     -2.63633906120978
  H           1.97549249895339     -3.08308267056260     -1.96075431190926
  H           0.22970544193929     -2.96362890907200     -1.67706596632050
  H           1.38441616382380     -2.29890472279004     -0.49392110513543
