17
Coordinates from ORCA-job NEB_reactant E -29.476292080140
  C           2.07170447037217     -0.15103499358369     -0.32710063184045
  C           1.51109962044389     -0.49861200606561     -1.48202238052104
  I           3.08663125275929      1.60026152271979      0.29274203041513
  H           2.01384476770953     -0.84285128259957      0.49333795745833
  C           0.82594988014418     -1.84018948176514     -1.57522870478782
  C           4.07021427531300      1.16758096274841     -4.50010964469892
  C           3.53658611220166      1.03316117270765     -3.30198264734781
  C           2.08892701238740      1.30207302456581     -3.02852373856290
  O           1.38626142499533      0.12109808261011     -2.67909721260769
  F           5.36555491210034      0.91456402124221     -4.72960737343032
  H           3.55788751754627      1.49763617779958     -5.39274300396579
  H           4.14628002847702      0.68800151336642     -2.48043665371195
  H           1.59304978992757      1.64582671570544     -3.94029265992110
  H           1.97556022246726      2.07148066324649     -2.25901877182662
  H           1.35998726248192     -2.46718139504859     -2.28691957945678
  H          -0.18459684098288     -1.69565165152525     -1.95090357331052
  H           0.78705829165606     -2.33996304612405     -0.61379341188375
