20
Coordinates from ORCA-job NEB E -44.230456739080
  C           0.43286287223066      0.69933721045665      0.59746797796599
  C          -0.82958411215750      0.08533694898449      0.63199636406781
  C           0.47702441911737      2.05928625938905     -0.06867955014318
  H           1.02470081152704      0.66596946470247      1.50968699650869
  C          -1.21304718278479     -0.79532248396832      1.78227972944397
  C           1.42761957942408     -0.41912147511472     -0.63773737817457
  C           0.51051945100006     -1.26534070738122     -1.26409229252854
  C          -0.68474079391754     -0.65722988775949     -1.75373963223031
  O          -1.48795463644936     -0.11130566316251     -0.47134270273460
  F           2.38353317178281     -1.00259724430562      0.10479784839967
  H           1.85493238728970      0.41838587304497     -1.18209531619642
  H           0.46337114778126     -2.28884249802710     -0.91730955204930
  H          -1.41539711265729     -1.32467438189972     -2.19679656974304
  H          -0.55073183709702      0.24906593609664     -2.34031387301663
  F           1.75458445246957      2.44791980827192     -0.36132274248312
  H           0.07819843029868      2.80660153241548      0.62839688938547
  H          -0.09443765022018      2.08344454959454     -1.00142842404177
  Br         -1.10660130621869      0.18450901497168      3.45875686048355
  Br         -3.01461919050363     -1.44642022374974      1.53665331181512
  Br         -0.01023290091523     -2.38900203255945      1.94482205527121
