17
Coordinates from ORCA-job NEB E -40.421286144600
  C           1.12399630876375      0.28186025975899      0.06336937962770
  C           0.49516520915287      0.24989827965151      1.31544474265021
  C           1.02285065067084      1.53689047931387     -0.73893220458909
  H           2.12333616775046     -0.14803219340710      0.02486074590252
  F           1.07843694634495     -0.61814303322637      2.20297376359255
  C          -0.03036348790122     -1.28390710072684     -0.65587422922682
  C          -1.33274657699948     -0.84428876107743     -0.43734083071948
  C          -1.78451338086532     -0.68192387605739      0.87801361469817
  O          -0.68478167652578      0.56618701111782      1.53649043900565
  Br          0.51750450956805     -1.68426771827430     -2.43274459799055
  H           0.42418212393938     -1.97903539293821      0.04077300184144
  H          -1.86708232253968     -0.36541233482559     -1.24409793768031
  H          -1.51799553990165     -1.42340359848252      1.62070041523136
  H          -2.74484683183308     -0.21280921736701      1.03189988198179
  Br         -0.75588122390555      2.25522006204042     -0.97909334118209
  Br          2.05907847567979      2.94388374708885      0.25538489389177
  Br          1.87366064860166      1.40728338741130     -2.48182773703483
