17
Coordinates from ORCA-job NEB_product E -40.468538151700
  C           1.55360842704315     -1.35327565450687     -0.68195642444554
  C           0.88403898642699     -0.92953207888238      0.61007393550022
  C           1.25277119096213     -0.33576428109747     -1.77364364738141
  H           2.63666801778264     -1.32471742538150     -0.48600193072897
  F           1.34861503310378     -1.68469644917192      1.63374287368248
  C           1.17749896163559     -2.83369946807669     -0.95448400435783
  C          -0.05810867268001     -3.06493732626894     -1.75540470918282
  C          -1.15807656584461     -3.57641213160962     -1.23223946643878
  O           0.07867390182047     -0.09683039836443      0.80713248152488
  Br          2.69988849599993     -3.76824278271744     -1.83205028938522
  H           1.09560064553875     -3.33891677871055      0.01185465383955
  H           0.00314805368407     -2.84570662466354     -2.81214764744429
  H          -1.23315515603054     -3.82727764885851     -0.18650194899264
  H          -2.03267274318855     -3.74906998305376     -1.83300459953869
  Br          2.05505651833393      1.38292683388715     -1.24326154385588
  Br          2.04783076009303     -0.83344006798339     -3.47611919131258
  Br         -0.64658585468076     -0.02520773454016     -2.06358854148249
