17
Coordinates from ORCA-job NEB_reactant E -40.463349106990
  C           1.59053110235438      0.11410290973211      0.09325239035291
  C           0.94944677458956     -1.05607307091057      0.18065232936074
  C           1.97535704553073      0.63367923146911     -1.22899465876090
  H           1.82866418930397      0.67329372865124      0.98115804371868
  F           0.58932960625132     -1.55223933457216      1.36831166859493
  C           0.05708088370104     -4.72900314408694     -2.48599069785882
  C          -0.35198931425849     -3.54191109910316     -2.07426246697849
  C          -0.06132730238836     -3.01436718887631     -0.70649799555086
  O           0.63833991264749     -1.77997207088212     -0.87743222851941
  Br         -0.32878547378914     -5.39666524184462     -4.20171405835162
  H           0.61922701540259     -5.41838385352427     -1.87493598495373
  H          -0.90055016566428     -2.87648204764297     -2.72464190348940
  H           0.55504182936601     -3.71311426420392     -0.12954750397776
  H          -0.99740583356304     -2.82839132759151     -0.16368355245300
  Br          2.86424564878395      2.34867225571471     -1.08228839904127
  Br          3.19256905268791     -0.60891974547349     -2.17161495669386
  Br          0.40952502904435      0.85817426314487     -2.40747002539813
