23
Coordinates from ORCA-job NEB_product E -42.575759395840
  C           2.94168395070746      0.58742509756687      1.72611726389429
  C           2.06482441885888      1.81007427634619      1.42182740802481
  Br          1.89134454322645     -0.96910974586931      1.13588414098258
  H           3.81880722568249      0.59258105272607      1.07296939033981
  C           1.97361345697312      2.15713930820018     -0.03839312485614
  C           3.32973370534990      0.51816270133996      3.21046223299129
  C           2.37728236715696     -0.31346551316800      4.02920578667610
  C           1.41193490076800      0.21113480418231      4.75866353224828
  O           1.53425572603825      2.42638737364277      2.30510745893761
  C           4.75689739502702      0.02813418762446      3.40054931432335
  H           3.28603254859620      1.55010136869854      3.59010657072628
  H           2.51696622988076     -1.38514223943571      3.97231593755746
  H           1.25186001855584      1.27526542416249      4.81026708376442
  H           0.73348566791754     -0.41062155909828      5.31541343684386
  C           0.85544067832522      3.15231543745142     -0.31984153857759
  H           1.84370306160774      1.24980179084801     -0.63130112511045
  H           2.94054655639030      2.59153201981991     -0.31556929619533
  H          -0.10921224081044      2.71168443622808     -0.08134749128103
  H           0.86075981766279      3.43762598987778     -1.36790950832109
  H           0.98257192050109      4.04296153381276      0.28992181531234
  Br          5.18815774604875     -0.03731391824815      5.30820135486272
  Br          5.04515104368030     -1.74481776809866      2.64452226118057
  Br          6.03325926185538      1.26104394139028      2.54962709567589
