20
Coordinates from ORCA-job NEB_product E -49.037190739330
  C           2.81394700252232     -1.14423657731437     -0.80413412239397
  C           1.49997476062262     -1.71220691748940     -0.28664705021540
  C           2.73693405634531      0.30254811888322     -0.68622510059432
  H           3.64869785121141     -1.48013501671586     -0.17754285644047
  C           1.48638565084437     -1.96152007564701      1.23047454524926
  C           3.03462423376449     -1.57000059010353     -2.26479901233299
  C           2.12920232894627     -0.87534462806502     -3.24269802681324
  C           1.50988567345166     -1.50824767024218     -4.22036942582209
  O           0.56588995130577     -1.98474015213733     -0.97429200918623
  N           4.45548073130061     -1.27277910792752     -2.66953696201535
  H           2.91349145158522     -2.65460993952461     -2.36076182407466
  H           2.03777593979758      0.19364861547717     -3.11200567372623
  H           1.59919698674943     -2.57202035079299     -4.36221335805948
  H           0.88251878698776     -0.98076073526978     -4.91626837156596
  N           2.66450920021613      1.43901945748794     -0.62479954137114
  Cl          2.20063245364562     -0.61400230333113      2.13762593313995
  Cl         -0.15112799162938     -2.28157397646463      1.79914690093180
  Cl          2.49416630836284     -3.42870983690095      1.43819307056986
  O           5.13694124157318     -0.64450671010681     -1.90274300335021
  O           4.79057338239676     -1.69492160381522     -3.74300411192913
