20
Coordinates from ORCA-job NEB_reactant E -49.042760670950
  C           2.17325449505651     -0.31773457635850     -0.14101242598223
  C           1.56212490113141     -1.50003216284568     -0.31962042627855
  C           2.43881603515307      0.65132774550677     -1.12035406222046
  H           2.51320616922766     -0.04701378224429      0.84776582632713
  C           1.38787611612532     -2.48643720898762      0.81432722197700
  C           3.59967483295557     -2.01640445623903     -2.75508961095190
  C           2.56139182040903     -1.34758042873304     -3.23923827953948
  C           1.17928399793829     -1.37138622105972     -2.67935860711817
  O           1.05786372503185     -2.04287457159203     -1.44056935864120
  N           4.88901510602888     -1.93403800798091     -3.38575676001840
  H           3.59042201474561     -2.65186636739331     -1.88222311280935
  H           2.69742246089049     -0.73614668353223     -4.12275631504651
  H           0.53260051516421     -1.93766148452876     -3.36040643893669
  H           0.78666459863316     -0.34967895821172     -2.61040694178006
  N           2.68461168485985      1.48066768054658     -1.87497310481039
  Cl          1.67720846305521     -1.79578753764510      2.41182551027482
  Cl         -0.25800810423368     -3.16075159141179      0.77917980621569
  Cl          2.55818221860929     -3.81858494460522      0.54964733624248
  O           4.98279307612636     -1.31883965842766     -4.42263915289863
  O           5.79719587309190     -2.50097678425675     -2.82074110400509
