22
Coordinates from ORCA-job NEB_reactant E -39.611720435870
  C           1.78491296422364     -0.17730877766461      0.21544208023221
  C           1.16219294355171     -0.21169613576441      1.38608261005059
  C           2.09423020856873     -1.26576170582297     -0.76756944340279
  H           2.14181722207316      0.79420127088355     -0.09433306994553
  Cl          0.94149729289048      1.27895199596152      2.25897771977936
  C           3.07894699239801     -3.86697610325350      1.68735872685980
  C           2.46351539603235     -2.74459657503032      2.04020038197057
  C           0.98733821814489     -2.54136694450797      2.01650610763192
  O           0.58472270816536     -1.19594253592589      2.12548076574667
  N           4.50784937324806     -3.97430385139688      1.74183786804787
  H           2.59207309313742     -4.76776008379114      1.34640574905943
  H           3.06016241455820     -1.90525541405996      2.37926411999125
  H           0.54782219725322     -3.01696293935527      2.90363089225470
  H           0.53586093907849     -3.01576234875347      1.13387140393830
  C           3.59911299209214     -1.33348363709866     -1.03422876626986
  H           1.58415297567611     -1.02334055086527     -1.70461153400510
  H           1.73374074258374     -2.23874521897339     -0.44265467470569
  H           3.95268982255774     -0.39172212920754     -1.44550741737421
  H           3.82047461776902     -2.12465208610496     -1.74636817400896
  H           4.14882401146226     -1.52856895732700     -0.11662607770469
  O           5.14614872770515     -2.98503838451392      2.02771365372350
  O           4.97851414683012     -5.05980888742794      1.48382707813069
