22
Coordinates from ORCA-job NEB_product E -39.639662895320
  C           2.43239259799465     -1.11867193100957      1.17750767503053
  C           1.20642452987861     -0.53785082661892      1.82520504762530
  C           2.37946673366606     -0.96915975786585     -0.35337999547416
  H           3.29421746263504     -0.54502443265257      1.54661386021048
  Cl          0.99954710774282      1.17494306123396      1.46504737866883
  C           2.60445171518196     -2.57809996008584      1.65011084848469
  C           1.81712573700333     -3.58510983756310      0.86750528831687
  C           0.65573373943595     -4.06269699417681      1.27226525433678
  O           0.42842007987217     -1.08766799814948      2.53094628856509
  N           4.05639602475538     -2.93016529526701      1.64987380087453
  H           2.29987588291036     -2.62157949069491      2.70427607312908
  H           2.26067679891367     -3.91422690488065     -0.06101382228186
  H           0.20290329229448     -3.74891203096268      2.19775954066046
  H           0.10441387422730     -4.77344987425207      0.68228945502662
  C           3.69420087649005     -1.35453790963350     -1.02128395863908
  H           2.16332449983402      0.07411806457831     -0.58425447081308
  H           1.56298836306170     -1.57741048639624     -0.74675519553246
  H           4.52254432333397     -0.79808621033732     -0.58873230569110
  H           3.64483498615427     -1.12251371012073     -2.08204871814994
  H           3.90538687806516     -2.41643030194084     -0.92653629333620
  O           4.82386031012907     -2.08666060539859      2.04514588572553
  O           4.36011418641997     -4.03900656780557      1.29355836326308
