18
Coordinates from ORCA-job NEB E -38.017206701010
  C          -0.18385520365838     -1.21705651947562     -0.62465340160319
  C          -1.52801821532734     -0.81199521501336     -0.70990834160836
  O           0.14385509546353     -1.99193691999323      0.43842531455697
  H           0.32873756224843     -1.43518037496790     -1.56060288998952
  Br         -2.01204148374893     -0.11015353523980     -2.48366677317337
  C           0.51560627242429      0.58993916917530     -0.15603734785107
  C          -0.22083330500605      0.88880593149103      0.99021977809030
  C          -1.60889504585144      1.09946919138384      0.85468218444905
  O          -2.18933640347756     -0.38427095615510      0.26511559723303
  C           2.00447745509877      0.37831513201769     -0.03542744792618
  H           0.26520427313566      1.08896208472827     -1.08743319664757
  H           0.16389361195141      0.56023123878030      1.94464652556732
  H          -1.94328484033143      1.72654414555098      0.03348428353942
  H          -2.19074909852146      1.21713194436017      1.75771125647171
  H           1.06685307722163     -2.27068025094016      0.39449550188964
  F           2.33969303126216     -0.34551624416794      1.05947203057862
  F           2.49587602666023     -0.31596847634366     -1.09470630770742
  H           2.55281719045648      1.33335965480918      0.01418323413063
