18
Coordinates from ORCA-job NEB_reactant E -38.037712018740
  C           1.58411960621045      0.08994656816109     -0.12861236612461
  C           1.33388268230461      1.23728822926772     -0.75727721450575
  O           1.77510417217590     -0.00289634070669      1.22836084513786
  H           1.63608402825781     -0.82003498897678     -0.70709355690032
  Br          1.06034192253739      1.17200431617863     -2.63630008750962
  C           4.19114404867118      3.97292744980229      0.79899814971373
  C           3.41963819175925      2.92202823895911      0.58208980219943
  C           1.94601586531626      2.89360225952580      0.84016605212049
  O           1.21133118860731      2.50497280045485     -0.31383062665861
  C           5.66865392963500      3.98252236749522      0.54944813833165
  H           3.81045679962550      4.90000291602159      1.20120518919066
  H           3.84216461315509      2.00990932673970      0.18155003457924
  H           1.56810389995043      3.88862628178435      1.08250320339040
  H           1.73468472762713      2.20686498297963      1.66864015883109
  H           2.04578567673632     -0.89734746757543      1.45592791615657
  F           6.33818774423423      4.38605648438652      1.66188750699673
  F           6.14730271711367      2.75396768738199      0.24464040558002
  H           5.95759818608247      4.66615888812040     -0.26810355052897
