18
Coordinates from ORCA-job NEB_product E -38.057938692170
  C           3.20213404204982      1.19761878245421     -0.43629821069522
  C           1.70846226821422      1.12950673978285     -0.66089994235647
  O           3.61813164535376      0.12304419298735      0.33324643896181
  H           3.72737442553626      1.11342094759354     -1.39571056493153
  Br          1.10636388852312      2.28759472764486     -2.11428293658796
  C           3.51858195859767      2.59827329364451      0.17890819893118
  C           2.80943706264825      2.78555549468725      1.49082707828935
  C           1.76961913362591      3.58215655517897      1.64942192552147
  O           0.92146514089572      0.49819699541744     -0.04896477148974
  C           5.03091211737859      2.76597351942170      0.36354033846754
  H           3.20187404303799      3.36117985854389     -0.53904665415458
  H           3.20200068811981      2.20836318122087      2.31730824623586
  H           1.36995184592648      4.16795194755044      0.83757015858210
  H           1.27426988791243      3.67937243568596      2.59925649016084
  H           3.09509187546417      0.06378507263778      1.14324792305223
  F           5.53589699964070      1.88605084201408      1.25210505570858
  F           5.68117727992221      2.55989734592151     -0.80449229970170
  H           5.28445569715289      3.77875806761278      0.71656352600624
