14
Coordinates from ORCA-job NEB E -29.933811750370
  C          -0.81776871508950     -0.50240741118445     -0.81660094187820
  C           0.18037671937149     -1.46611436881555     -0.45075827739504
  Br         -0.21859958500218      0.58266388331240     -2.38208576987131
  H          -1.76042817052761     -0.95079022647503     -1.12218362332239
  Cl         -0.24017293150580     -3.10560962980375     -0.17971960824372
  C          -1.01417694831374      0.48014701930252      0.40960827845867
  C           0.26833795211084      0.95858437279928      0.84302352207092
  C           1.50428522230505      0.22026911798712      0.50323218796453
  O           1.36783969326581     -1.10181534341653      0.03212491634433
  Br         -2.27583738235359      2.01526708478227     -0.10911231937739
  H          -1.63489645161800     -0.05590068213948      1.12657379476996
  H           0.41082209893114      2.01653587706069      0.99107622476089
  H           2.14497215200685      0.10767096020355      1.38601354801251
  H           2.08524634641925      0.80149934638696     -0.23119193229376
