14
Coordinates from ORCA-job NEB_product E -29.999968231400
  C           1.97835934325452      2.02441967963150      0.43373005135715
  C           0.64387176046804      2.29300190652064     -0.21618112534003
  Br          1.93939720352659      0.09560576164655      0.82777572731870
  H           2.80897498584019      2.17165519249253     -0.25813614361490
  Cl          0.68566254538511      2.02784742420155     -1.94862995381154
  C           2.15669732748410      2.80171910852064      1.72454885864557
  C           3.39044407478658      2.43045754622521      2.46836102540151
  C           3.39331480592532      2.11372857860434      3.75018738436661
  O          -0.35223227449746      2.60459513661115      0.34337956977256
  Br          2.26468635033984      4.71564602875862      1.19025808649541
  H           1.26343238516333      2.72408761377703      2.34855982108860
  H           4.30452633041772      2.44752826048248      1.89030149692153
  H           2.48928549413006      2.10190152685385      4.33647324549086
  H           4.30157966777605      1.84620623567391      4.25987195590799
