21
Coordinates from ORCA-job NEB E -46.450362481280
  C          -0.19983921929463      0.55054201621243     -0.54865445379053
  C           1.21078849974960      1.11040906849785     -0.22976024356242
  C          -0.45444624551379      0.59919536531689     -2.04492598547460
  H          -0.90514203458499      1.24917507871958     -0.07011869880600
  N           2.22000395499373      0.22682109577052     -0.31882743030078
  C          -0.43770665540918     -0.83065028711380      0.05993090154333
  C           0.15488809456253     -1.00192355346258      1.41022901942620
  C           0.07134459813493      0.02759953157904      2.38471920784619
  O           1.35976851259766      2.26550163721567      0.07611947403015
  N          -1.91110028945107     -0.99641941491958      0.43674901198247
  H          -0.20407808598837     -1.66111075132043     -0.61264150380143
  H           0.35953324139126     -2.02200404863603      1.71324148707759
  H           0.86558020413412      0.73887218073995      2.54088859427823
  H          -0.84299449994847      0.19969457726320      2.93770367010311
  Br         -0.18849846970537      2.40555956560062     -2.73723841971206
  Br          0.74055114772421     -0.59712860241097     -3.03391722714745
  Br         -2.29592593103223      0.04417995179653     -2.47118975613830
  H           3.15293780496401      0.56891114567832     -0.15181872004808
  H           2.10988371671567     -0.73080634259395     -0.60083327874155
  O          -2.45500217290355     -0.03040712409478      0.91924743368387
  O          -2.35054617113607     -2.11601108983847      0.34109691755207
