21
Coordinates from ORCA-job NEB_product E -46.569243492400
  C           1.64754907949378     -1.26259510972907      1.74489174863141
  C           2.88434833684974     -2.18825628760250      1.54015930054912
  C           1.45133837621858     -0.36133463182256      0.53840351321314
  H           1.96334998808481     -0.59590783278843      2.56369824696881
  N           2.75576806472959     -3.19971914010446      0.66959086740856
  C           0.35617741703913     -1.95942639011242      2.24116649017549
  C          -0.44587338641470     -2.74770638485621      1.25092895639767
  C          -1.64746434286184     -2.37816427715520      0.84508369242169
  O           3.90702273083766     -1.92352605741456      2.12016687339063
  N           0.78433746816907     -2.87648414303107      3.35242888596482
  H          -0.28184297423020     -1.19854233691550      2.70736038412213
  H          -0.02268034297805     -3.69238620516756      0.93814743815355
  H          -2.10519239439472     -1.45729761567942      1.16683409123386
  H          -2.20901338100501     -2.97654010468749      0.15040954502449
  Br         -0.01356003717951      0.91015800087307      0.84932509838913
  Br          3.08068130466627      0.68594833422057      0.23249393831563
  Br          1.04890621588486     -1.28830529379478     -1.12524246576637
  H           3.54543247622392     -3.82010003995290      0.58170142033142
  H           1.87670658421723     -3.51000153925695      0.29471096409631
  O           1.27536380633941     -3.92791581769884      3.03004144423571
  O           0.61004501030998     -2.48119712732372      4.47189956674281
