22
Coordinates from ORCA-job NEB_reactant E -41.218190592000
  C           1.85142824508431      0.19613902723591     -0.01165999613696
  C           1.59819063898595      1.04834555724734     -1.01423306188580
  C           1.38715846601314      0.19595100614437      1.40578301639779
  H           2.46019231974399     -0.65768645114765     -0.26085622260963
  C           2.14748261253233      0.75040145442370     -2.39653834335245
  C           2.02207250125588      5.07702912722327      0.12653894452834
  C           1.83484567629270      3.79480791285935      0.43459735206960
  C           0.62025961501826      3.02905518118949      0.02464503081012
  O           0.89015364904965      2.18090632658434     -1.10560275222336
  N           3.17090166517989      5.79135628287027      0.38284284667718
  H           1.26589089794513      5.63067128119139     -0.41435015858284
  H           2.59782168779947      3.24632546211841      0.96607127383057
  H          -0.15108118744313      3.70609867604613     -0.34978419223593
  H           0.20777883819707      2.45573761591662      0.85448865181117
  F           1.91101267746534      1.21142638465358      2.15559575782585
  F           0.03387600008057      0.32727955455998      1.52547859667922
  H           1.66050935333513     -0.74119759568379      1.91262866173066
  F           2.68741271889752     -0.49924552549660     -2.50059762662301
  H           2.93718091733836      1.46892077919014     -2.64443981947714
  H           1.34090254522797      0.82643308991286     -3.13283751978534
  H           3.80650088010204      5.35940960108630      1.03660566676219
  H           3.06250928189844      6.78393525187460      0.51412389378978
