22
Coordinates from ORCA-job NEB_product E -41.209978094550
  C           2.28781204840638      1.62125482277777      0.03081889548430
  C           1.42086781854710      0.90559358529854     -0.99447068470853
  C           2.11616305358531      0.98692388463572      1.41371882392866
  H           3.34461393418778      1.51709118613839     -0.23522634061495
  C           2.05223017486918      0.89605337263867     -2.38213120725925
  C           1.98278674268380      3.15569053857301     -0.01531136309977
  C           0.79508815713252      3.53106492251839      0.83028655766919
  C          -0.41481021436653      3.72841849819699      0.34343849783533
  O           0.36203131414890      0.40578102370114     -0.75081835707403
  N           3.21192183448285      3.85289023324394      0.32999313043362
  H           1.75955316260031      3.40994343796416     -1.05944134766896
  H           0.99538420929699      3.65203590510684      1.88654547860197
  H          -0.63346853879358      3.60549052432351     -0.70472894389643
  H          -1.24047236753761      4.00338433696242      0.97560584249142
  F           2.92908170413301      1.59559117709583      2.31808421966599
  F           0.87189779030775      1.08419986358642      1.91278929703892
  H           2.38431153568069     -0.08226678503349      1.40005603160830
  F           1.14965336827402      0.53587417121278     -3.33813555149148
  H           2.86186501351940      0.15536624879532     -2.40206312172036
  H           2.44792336957008      1.88076090191857     -2.65094075869903
  H           3.45261310066489      3.68601635969358      1.30192093061800
  H           3.09125278860676      4.85204179065148      0.20920997085712
