19
Coordinates from ORCA-job NEB E -41.531223754740
  C          -0.72819086369742     -1.16845627340841      0.39571522181861
  C          -1.32520187726213     -0.26169674411870      1.29769598040989
  N           0.34100919027312     -1.90295369084884      0.82724461090367
  H          -1.36975196288940     -1.67652050680560     -0.31239931104394
  Cl         -2.96003927613295      0.25822150654901      0.84002250813895
  C          -0.02063704757883      0.42487522442462     -0.77279895162850
  C           0.75546325558470      1.12926465538249      0.14914995712635
  C           0.12676114872226      1.81888834100878      1.18515218098248
  O          -0.67493268233088      0.46094633767240      2.07673713389012
  C           0.62867544173472     -0.20094044282014     -1.96474468863543
  H          -1.00310132576980      0.81624476818348     -1.01402601516012
  H           1.79990246148070      0.87135365590731      0.25026859676091
  H          -0.79790150769872      2.34017350386476      0.98013869853321
  H           0.73014332526384      2.25504766804546      1.96523502875746
  H           0.83488532949260     -2.44293826821188      0.13455248252552
  H           0.93625475056627     -1.43805327040067      1.49811970526845
  Cl          1.01411747874585      1.10174140950350     -3.15400214514810
  Cl          2.15410959846277     -1.02816249881703     -1.58965655919976
  Cl         -0.44156543696668     -1.35703537511054     -2.79240443429976
