19
Coordinates from ORCA-job NEB_reactant E -41.550560350910
  C           1.53813516037964      0.03733025805161      0.01694438011779
  C           1.79945453906340      0.62012840901358     -1.15533671790074
  N           1.35582759593563      0.73139342584855      1.19969073755890
  H           1.51235074476214     -1.03790895916816      0.08934209940044
  Cl          2.17166148609574     -0.37124290617061     -2.54825411225485
  C           3.05810063631692      3.95268382602882     -3.96459053064080
  C           2.78601812185029      2.80203403602269     -3.36978045366772
  C           2.92049251178655      2.58468197032171     -1.89338311313874
  O           1.75961898292920      1.96552577538366     -1.34602590962523
  C           2.96298075062836      4.21557911278822     -5.42290686166570
  H           3.39765876780627      4.81033900439272     -3.39970227069979
  H           2.43938262620066      1.94793444448577     -3.93278368980373
  H           3.03250585617815      3.53925012189438     -1.37126394738995
  H           3.80467467949953      1.96450361852060     -1.69809520593291
  H           0.69601131468768      0.31650282472757      1.83961121953835
  H           1.21012406406089      1.72198735309963      1.06600875495198
  Cl          1.85861550635364      5.59470926433978     -5.70341934229819
  Cl          4.58047881515851      4.67501528158567     -6.04336047703924
  Cl          2.38200784030679      2.83995313883379     -6.36569455950987
