19
Coordinates from ORCA-job NEB_product E -41.564706790840
  C           1.96813554645920      1.16161072955978     -2.22268326830644
  C           0.50902016293906      0.89676427894147     -2.55924489055881
  N           2.06004156812373      0.91623874654236     -0.79964071975604
  H           2.62000409272639      0.44810758127303     -2.73362832110194
  Cl          0.25341531271882     -0.63985654524772     -3.34661193013905
  C           2.34737573553148      2.61923277171901     -2.64033920423866
  C           3.59778010901104      3.05188925707955     -1.92785687906971
  C           3.61913154377920      3.99005085710016     -1.00004336189871
  O          -0.40367565077759      1.59023897009380     -2.25330098436869
  C           2.53775664577473      2.73517360384252     -4.14905815752845
  H           1.51711554965647      3.27743825915964     -2.35916920377081
  H           4.49822047561680      2.52582036152598     -2.21170921357301
  H           2.73012614737935      4.52568443031681     -0.70975264624038
  H           4.52977115801381      4.26677162864603     -0.49812471379095
  H           3.00978609448771      1.03987069418726     -0.46984144309771
  H           1.45153284507312      1.54267977136327     -0.28440679557825
  Cl          2.93950474045502      4.41864387018407     -4.57287637506385
  Cl          3.85405767820634      1.69167799118748     -4.72904663589893
  Cl          1.05170024482531      2.27846274252549     -5.01846525601959
