20
Coordinates from ORCA-job NEB_reactant E -34.119346601780
  C           1.49682384375448      0.21667606465900     -0.15861314525892
  C           1.28099230106225     -0.49964976964113     -1.27426015446471
  C           1.84258398100507      1.65908334602477     -0.00539881773484
  H           1.54362441166849     -0.36130240914560      0.75101364423656
  N           1.05740287693585     -1.86544574055363     -1.20867136106206
  C           1.68220061291496      3.48731283259915     -3.13245931364369
  C           1.86184975196088      2.16814150798488     -3.10172788680472
  C           0.74453926189701      1.18484512240918     -2.93138195371396
  O           1.17903870135829     -0.11029314397711     -2.57696934041282
  C           2.73896485763179      4.39224799549254     -3.34784624323892
  H           0.70537004905915      3.93742211478525     -2.99991334130229
  H           2.84684882386970      1.74176789312702     -3.22791000530828
  H           0.26234101855272      1.04569098641800     -3.91017530832084
  H          -0.01958037947757      1.54524450787614     -2.23257041695952
  F           3.09878515207143      1.93770686652861     -0.53646066398648
  H           1.90794196759034      1.91698479826892      1.05509949577307
  H           1.15873953271921      2.35426375052781     -0.50131851624674
  H           1.13453442252650     -2.32430682773408     -2.10349496235546
  H           1.51147130424289     -2.35287446741762     -0.45393265339999
  N           3.58112750865658      5.14898457176791     -3.52820905579541
