20
Coordinates from ORCA-job NEB_product E -34.157406767820
  C           2.42013690068240      0.76702974663461     -1.82789554712868
  C           1.40759487368625     -0.36301671827302     -2.08546157345972
  C           2.61558219484646      1.09652451578086     -0.34869635506079
  H           3.38444996896222      0.42161069723772     -2.22460096029642
  N           1.48959706670327     -1.39874255939791     -1.23030752588706
  C           1.98307554273292      2.02306103398953     -2.61892713356117
  C           0.81172075384878      2.72794857059009     -1.97878167903624
  C          -0.42213772671748      2.62815618580074     -2.43288672477789
  O           0.61812758021319     -0.33026836359642     -3.00140540854489
  C           3.09371209785112      2.93760512143841     -2.73291166358659
  H           1.69259835154038      1.68898859970255     -3.62222457139599
  H           1.04465714264983      3.33741374608004     -1.11547534895571
  H          -0.66065223280964      2.01913914717154     -3.28833987066769
  H          -1.24248439639207      3.13373683279257     -1.95274474738680
  F           3.35243101345216      0.11506150880253      0.27656860638113
  H           1.66341366603668      1.16285304623800      0.18688809468889
  H           3.18425033858108      2.02514102779188     -0.23324906212377
  H           0.87715549333947     -2.18425573299525     -1.37709482430448
  H           2.18434856130350     -1.45993318260762     -0.50716559112646
  N           3.97382280948951      3.66464677681915     -2.79378811376967
