73
Coordinates from ORCA-job A2R E -110.259420666800
  Ru         -0.22303469892486      2.07168665610802     -0.45472774165282
  H           0.09702473458063      0.62170203943367     -0.89156007048228
  N           0.81357856513588      1.62290497406645      1.29712697602572
  C           2.15185600771656      1.47949738730295      1.27668601539194
  C           0.17215588508719      1.44723452757035      2.46745508887411
  C           2.87701499873263      1.18070989725702      2.42275385807620
  C           0.84318338510364      1.13647902320506      3.64047111507402
  C           2.22143877582538      1.00673367992114      3.62880768243783
  H           3.94956610939171      1.07710898257117      2.35796895146428
  H           0.28198021218842      1.00361897965776      4.55186063251612
  H           2.76553525747299      0.77122608089326      4.52989881212165
  P           1.86941985449469      2.68234354365954     -1.16421723069537
  C           2.54369860371140      2.18478593807759     -2.86597770585418
  C           2.50795835719215      4.42547690369447     -0.71824973481302
  P          -1.93739558450685      1.34113805414202      0.77820639456307
  C          -3.66586987910449      1.99680840274328      0.94423000431729
  C          -2.29794953802766     -0.47968264992516      0.86663260587396
  C           2.85129526047086      1.59626452591753     -0.03763438245813
  H           2.82288873506656      0.60305696951571     -0.50796394443388
  H           3.89356407881097      1.90183768934638      0.08372575859597
  C          -1.31756809734714      1.61243371853739      2.48690605508318
  H          -1.78739766079996      0.94625840541879      3.21720488151116
  H          -1.58016118453780      2.65119641963637      2.73208060175359
  C          -1.13546756733143      2.43818417753818     -2.01623477551540
  O          -1.70999660521725      2.66063825111019     -2.99284154895679
  H          -0.55053123197328      3.48670860967962      0.10015815028133
  C           4.05092506813266      1.93057463641464     -2.91509209656012
  C           1.84219862216795      0.88156657070453     -3.25056332690983
  C           2.13081984045785      3.25741717424625     -3.87477965828872
  H           4.32347383564814      1.08516013126279     -2.28838652146215
  H           4.32592339105502      1.68293619104689     -3.94031247766064
  H           4.63593266106284      2.79234630077938     -2.61672836349229
  H           0.76355816336549      1.02547227392820     -3.28636403849910
  H           2.18594544645162      0.55743332671042     -4.23284328766379
  H           2.06522482514463      0.09326678681501     -2.53498010939512
  H           1.08744387993487      3.53309330968259     -3.71237782523767
  H           2.75206091360234      4.14612575060650     -3.79798918222955
  H           2.22733523195819      2.87129770523860     -4.88909332335856
  C           2.36675232150628      4.55045363673951      0.80215483368855
  C           3.95746771840157      4.73274313160552     -1.08670330430433
  C           1.57302789531808      5.44443248698192     -1.37169264450918
  H           3.09456848898453      3.93499700824977      1.32872373576578
  H           2.52552220415553      5.58575025744007      1.10238916700172
  H           1.36325543136255      4.26344531121862      1.11438770193013
  H           4.09584667617065      4.80428768446955     -2.16156619959008
  H           4.22900134594070      5.69769533765988     -0.65783965700920
  H           4.64205148384937      3.98900617771330     -0.68360729197937
  H           1.76077517253553      5.54227959444001     -2.43648797568904
  H           0.53683484091320      5.13739983926428     -1.22949920891126
  H           1.70850304521994      6.42398033424026     -0.91482456274800
  O          -1.77661670807492     -1.20265597108260      1.67852724732836
  O          -3.05064653995740     -0.88157689912757     -0.13855976754741
  H          -3.05873632081514     -1.85628239598679     -0.22911994280631
  O          -4.10271596747672      2.56065497378398      1.90797683973123
  O          -4.32031203040279      1.77502859373441     -0.18200683763182
  H          -5.22166083209654      2.14472832701207     -0.17173521783571
  C           1.35460636391629     -2.02414599970625     -0.04926264947179
  O           2.25142761604490     -1.53053830438087     -0.70237718746277
  C           0.13613205872889     -2.57962325731050     -0.68776702372355
  C          -0.76783051851280     -3.39407079887446     -0.00659473329059
  C          -1.91372466520515     -3.84152209355895     -0.64157596271281
  C          -2.17359147250850     -3.48361634585254     -1.95806410785681
  C          -1.27381273728714     -2.68475685334771     -2.64480773814559
  C          -0.12568345236252     -2.24336230278418     -2.01629695103427
  C           1.41298626023171     -2.08466786202886      1.45434535054580
  H          -0.58686495118506     -3.68374782899703      1.01575553135096
  H          -2.60524320682083     -4.47989822408933     -0.10872083115124
  H          -3.07250351186561     -3.83262298306806     -2.44557424797975
  H          -1.46910160338451     -2.40524554255997     -3.66868678686288
  H           0.57939902217331     -1.61842491876602     -2.54012789813129
  H           1.50421873952182     -3.12048592382678      1.77638950969406
  H           0.49965258674203     -1.67060347327459      1.87722674498720
  H           2.27488659403384     -1.52657606044511      1.81326582802251
