73
Coordinates from ORCA-job A2S E -110.261835894080
  Ru         -0.40370229284225      1.79403915344415     -0.32106166791867
  H          -0.10933312585252      0.30447096745816     -0.60038240026066
  N           0.64543398875822      1.54569282959035      1.46440715279019
  C           1.98889074955408      1.45238478688406      1.45590272596242
  C           0.01415335229514      1.51844148602137      2.65159697672090
  C           2.72794020947649      1.36731290956101      2.62774171578655
  C           0.70180712849914      1.43422777765023      3.85312563565531
  C           2.08352047575643      1.36749895278275      3.85127961627213
  H           3.80333495317131      1.29871908411842      2.57071945236812
  H           0.14730406378977      1.42940019306094      4.77830859603747
  H           2.63907163509112      1.31347016983652      4.77415399654716
  P           1.68124779617910      2.31253567297170     -1.12375601577142
  C           2.34558079078341      1.60088176169214     -2.75330890428165
  C           2.30242025329338      4.10661202812783     -0.92218092514686
  P          -2.15381306631795      1.35641180050506      0.99274411075844
  C          -3.55020194169272      2.58821911825466      1.04140278608084
  C          -3.30170743165983     -0.09729780392208      1.26620711633096
  C           2.68629319220749      1.40876329208530      0.13504746195022
  H           2.69891890747687      0.36251345111332     -0.19847704417134
  H           3.71791036229017      1.76093968922111      0.21239352753320
  C          -1.48240268617110      1.61772061917409      2.68128746358657
  H          -1.91526589692479      0.91008602029530      3.39673205919254
  H          -1.78302335484717      2.63643563059398      2.96916847002979
  C          -1.32677756553083      2.01828765316394     -1.90240439306849
  O          -1.90819906127210      2.17069148929797     -2.88866745651429
  H          -0.68023767489983      3.27185577120469      0.07949802318497
  C           3.85163978729232      1.33714745222079     -2.77090354168771
  C           1.63860956103587      0.26267825736069     -2.97408166886361
  C           1.93248983059701      2.53841495305481     -3.88894273849673
  H           4.11811858651559      0.56715335233941     -2.05131570184576
  H           4.12754569623093      0.97349234884394     -3.76065932327492
  H           4.43981569706355      2.22482297916731     -2.57033228478352
  H           0.55926281595047      0.40098360187719     -3.00658893757232
  H           1.96430004172446     -0.16909739351983     -3.92002895171462
  H           1.87634340732332     -0.44284183312079     -2.18228038258301
  H           0.88843223411479      2.82979100089610     -3.76402841992777
  H           2.55182019882561      3.43089674465198     -3.92544496298520
  H           2.03045396406205      2.02764329332589     -4.84632775637369
  C           2.18531833887576      4.43528822496377      0.56975571578127
  C           3.74359047209345      4.37423006637803     -1.35128213711842
  C           1.34871555305466      5.02238042929987     -1.69122100176804
  H           2.93294606506931      3.90936876959144      1.16112504365586
  H           2.33081800140395      5.50426332697367      0.72228236933314
  H           1.19369491713829      4.17963688116667      0.94064038641086
  H           3.86980847051156      4.29270069912150     -2.42680073234374
  H           4.00714848687906      5.39358096708417     -1.06806925279126
  H           4.44256978942886      3.70393189959902     -0.85487939434427
  H           1.51500567947148      4.97356421785054     -2.76296581167652
  H           0.31731810950188      4.73551327739115     -1.48742431816928
  H           1.48696868744294      6.05593493106896     -1.37599488216740
  O          -3.62763027128543     -0.54531311573516      2.33214771661982
  O          -3.73259570205863     -0.52800502274965      0.09470640244112
  H          -4.38481612261126     -1.24763954870083      0.17326595690308
  O          -3.65552873990196      3.48527509282766      1.82934044336857
  O          -4.36110667799797      2.37155031605471      0.01563362617257
  H          -5.03185230011969      3.07157588543748     -0.07964181291546
  C           1.38906078212911     -2.13401705166304      0.09668540325375
  O           2.49388439118696     -1.75263436175318     -0.23540469984023
  C           0.91922961316583     -1.99225814497302      1.49675261453168
  C          -0.43030544452898     -1.93303370343281      1.83595618024432
  C          -0.80923550563564     -1.82935659590046      3.16171468940935
  C           0.15037274248300     -1.79100456968635      4.16081796514135
  C           1.49522576249589     -1.83450977504737      3.83196032954687
  C           1.87676223497688     -1.92412909393353      2.50772055508198
  C           0.44414485076055     -2.78196196023000     -0.87523737582533
  H          -1.18366183313098     -1.95313067209534      1.06295130942572
  H          -1.85779591517612     -1.78243434857797      3.41613429680280
  H          -0.15129829031418     -1.72518163632509      5.19594200011948
  H           2.24506353258857     -1.80042433633705      4.60857163510324
  H           2.92099089757067     -1.96142936325544      2.23281756442136
  H          -0.06672790765620     -3.62865575866071     -0.42457616289240
  H           0.98757573640102     -3.09639543289975     -1.76293607595699
  H          -0.29485398555965     -2.03767975413637     -1.17253195550436
