73
Coordinates from ORCA-job A3S E -110.228624792230
  Ru          1.85121455577966      3.32140927843424     -0.30066226063760
  H           0.45980322752883      2.17836025377652     -0.34394017479599
  N           2.29487219780471      2.37412412848590      1.52945540211015
  C           2.73917145344629      1.07745096898352      1.45562391607399
  C           2.03567238866131      2.92037228426091      2.72376865802484
  C           2.86336251777695      0.32053569710680      2.65309545883825
  C           2.17408257733928      2.22540127815056      3.90732544698039
  C           2.59184841511157      0.89073365734648      3.86074995662287
  H           3.19316118042280     -0.70441747968202      2.57548739172941
  H           1.96053033663645      2.70890160151794      4.84579999236504
  H           2.70029382115309      0.32756840911826      4.77578358451442
  P           3.30666930876405      1.68908199572109     -1.08971642736718
  C           2.98752121604539      0.81618164638685     -2.74518861287951
  C           5.16455745145812      2.15654427030365     -0.97570869174345
  P           0.92053944088227      4.84366955010978      1.13127549552312
  C           1.82245549912917      6.45954896164530      0.87274522324136
  C          -0.63383094972010      5.75908970640233      1.62053807243173
  C           3.00744156185763      0.51180413452705      0.19912429363282
  H           1.14732065410333      0.06378349551677     -0.02764633425511
  H           3.47141188343292     -0.46622124197686      0.16733775600651
  C           1.60331956777874      4.36173395558422      2.76161495211024
  H           0.87033983244099      4.53866588491134      3.55458747795338
  H           2.47549855851241      5.00926375680197      2.93687586915940
  C           1.43241706691371      4.14938960323127     -1.89595061438734
  O           1.21537480830687      4.72964885315593     -2.86772488709269
  H           3.04458005980033      4.25655731858302     -0.17992502775749
  C           3.39942609028161     -0.65413605936824     -2.71759713001827
  C           1.48013688017861      0.88902287086046     -3.00461300024846
  C           3.67814155929066      1.56337488741347     -3.88448083909241
  H           2.81224524719721     -1.20077964826713     -1.98344990714020
  H           3.21077229378774     -1.09741263172125     -3.69505665238243
  H           4.45236970569296     -0.78072039550556     -2.48761852787562
  H           1.13843326254356      1.92645488339822     -2.99154894197176
  H           1.25785407273092      0.47390669779499     -3.98746753840075
  H           0.92481719876356      0.31252487160209     -2.26988374722435
  H           3.46781267951601      2.62978004852020     -3.81116572966372
  H           4.75262251123190      1.40790855505936     -3.88325649963241
  H           3.29543394003689      1.20593239181607     -4.84041671378749
  C           5.40435732446903      2.52389739728276      0.49163834138438
  C           6.08952353624704      0.99097012686200     -1.32060808078910
  C           5.47557547442417      3.38507590884989     -1.83000622635020
  H           5.25192844135908      1.66660825389088      1.14476597901494
  H           6.42861037792562      2.87036219197464      0.62237873674145
  H           4.73256022199867      3.32500436897109      0.80216024648025
  H           6.07099779284135      0.74924409821167     -2.37949701346144
  H           7.11423041823984      1.25632141052291     -1.06067907385544
  H           5.81794712941319      0.10573762000034     -0.74773840119648
  H           5.59050971877713      3.13872269121422     -2.87994170554983
  H           4.67473556457923      4.11858943174813     -1.72606781060664
  H           6.40445867240270      3.84207322918664     -1.49126557519905
  O          -0.95627952528265      6.03253734167559      2.74077955260345
  O          -1.28742616971910      6.11062686038150      0.52334213250742
  H          -2.06666781670882      6.66350856775182      0.71204288642826
  O           2.67268198235043      6.90552950177541      1.58861169301763
  O           1.39944399443084      7.00988324660554     -0.25391669525433
  H           1.90804166036552      7.80542483710496     -0.49308794600218
  C          -0.31635615303552      1.36767405324861     -0.03613200979227
  O           0.19126527933239      0.09873961776710     -0.30121862931082
  C          -0.65768130192907      1.55401690352458      1.43094576119325
  C          -1.25835684878336      2.72636376486853      1.87738722903431
  C          -1.57735315415204      2.89157229280014      3.21329431011858
  C          -1.30231985839338      1.88297747637071      4.12141078190934
  C          -0.73009882529128      0.70350954508063      3.68099114887553
  C          -0.41461732100752      0.53705201963504      2.34429340643928
  C          -1.55115351520203      1.57313600069259     -0.91631753233183
  H          -1.51765549644467      3.49794275638215      1.16313833294198
  H          -2.03669524457244      3.81072925052942      3.54617526698629
  H          -1.54372645048687      2.01450670781508      5.16547131315438
  H          -0.52635500925206     -0.09482283639396      4.37889544518626
  H           0.01617242450901     -0.39248022671366      2.00396880691188
  H          -2.32456955341309      0.87493412450008     -0.60306460325820
  H          -1.29780614808556      1.36878932021846     -1.95330269760684
  H          -1.92816569452415      2.58846370565907     -0.83851805932794
