73
Coordinates from ORCA-job TSA2R_3R E -110.221526386320
  Ru         -0.90830338599398      0.51311618208338      0.24552199459386
  H          -0.31430237956517     -1.09396857264753      0.02608860958027
  N           0.29311274615271      0.42241313255469      1.97718151273320
  C           1.63467262485011      0.35013732397412      1.79370316370298
  C          -0.21843885150363      0.33545795514582      3.20877806215344
  C           2.48692421184120      0.18320939464997      2.89937538930365
  C           0.58155359526713      0.18138404472075      4.32962984604536
  C           1.96103484522265      0.10526966796856      4.16595961783101
  H           3.54999738719756      0.11153024347256      2.73092660952415
  H           0.13171681170639      0.11516949060779      5.30655041889880
  H           2.60442891222254     -0.02031988195313      5.02355332488384
  P           1.07212902987916      1.29211310698780     -0.67373746088672
  C           1.60498829561411      0.79213804693088     -2.42272485629425
  C           1.48805503833039      3.13301164302053     -0.37303925585176
  P          -2.49292391520725     -0.09989250643155      1.76465449971824
  C          -3.99516342838715      1.00027966139529      1.77757365487573
  C          -3.44344413020503     -1.62085567534203      2.30857779028310
  C           2.13599046019547      0.34147403898240      0.43759039826194
  H           1.91121293232990     -0.97258634971476      0.08446582648004
  H           3.20911016925255      0.49595734854187      0.34737101858088
  C          -1.71266992411046      0.39690685716695      3.35323379721619
  H          -2.05958319822138     -0.23597814695629      4.17670976049038
  H          -2.03486483396442      1.43147468064985      3.53947950840447
  C          -1.96696897293686      0.63944138796581     -1.26100914261497
  O          -2.65004624826995      0.80131193283709     -2.17407692681460
  H          -1.36160489721985      1.93890033431092      0.61291854771149
  C           3.11087127044586      0.56139199447245     -2.53689446844839
  C           0.89695988464573     -0.52681223771969     -2.74292310623606
  C           1.12162968142373      1.83123088041216     -3.43411308680860
  H           3.41170573158234     -0.28146117902244     -1.91981981882335
  H           3.35385100966587      0.32128413267461     -3.57148643298109
  H           3.68894979578348      1.43421573415472     -2.25107997702116
  H          -0.18603304392258     -0.42413740104343     -2.65342552489519
  H           1.12152475058659     -0.82295778715382     -3.76682328217098
  H           1.23798463996743     -1.32478235018006     -2.08803847809222
  H           0.07427427728980      2.07055459753728     -3.25085100991868
  H           1.71086342047174      2.74317532804436     -3.39928743566804
  H           1.20437869110096      1.42424458172223     -4.44150190694027
  C           1.38932518962716      3.35442156011492      1.13880355463192
  C           2.89437113292540      3.52783275847833     -0.81768369089460
  C           0.42832011524038      4.00578809586459     -1.04634076841255
  H           2.16643674617838      2.81246367064789      1.67488453275960
  H           1.50559028816978      4.41421877739446      1.36223329331575
  H           0.41380719373934      3.03747094516924      1.50755851514867
  H           3.00252673292637      3.51047638602152     -1.89821303166925
  H           3.10255953298567      4.54371701756435     -0.48200076058376
  H           3.64062755129848      2.87091242789339     -0.37387979281546
  H           0.58937410907311      4.09638906836793     -2.11506952283662
  H          -0.56135973381399      3.57947681139865     -0.87494578999822
  H           0.44834777339397      5.00755823068802     -0.61952906221854
  O          -3.42033704918279     -2.08379309358465      3.41369314494317
  O          -4.14914020413898     -2.08373207750558      1.29185605004357
  H          -4.67183046710447     -2.87229187058541      1.52244253354048
  O          -4.21514594542305      1.86036008440739      2.58091333599079
  O          -4.74263698209179      0.71389650066645      0.72556083032211
  H          -5.49637485431330      1.32260728498244      0.62457807964786
  C           0.17554836032690     -2.19948292196858      0.08610740879992
  O           1.48996551513852     -2.13876304175856     -0.17710135302981
  C          -0.60524167200253     -3.01696932835882     -0.92438648182750
  C          -1.94309799885793     -2.76758334054906     -1.19305365204662
  C          -2.63712711577718     -3.56532461753365     -2.08382566128311
  C          -1.99833908176941     -4.61818181110597     -2.71795498517674
  C          -0.66180666529489     -4.86750588694607     -2.45837912344292
  C           0.03087665495521     -4.07242827473859     -1.56378550792751
  C          -0.12437381299324     -2.75090309634363      1.49522509933139
  H          -2.44935614787772     -1.93447863652142     -0.71346698387686
  H          -3.67743203694408     -3.35830902336989     -2.28910944354461
  H          -2.54043387572573     -5.23756979701986     -3.41773472749525
  H          -0.15649642268449     -5.68366698890214     -2.95403748951558
  H           1.07561034341154     -4.24700852753555     -1.35444938916045
  H           0.16984129309540     -3.79921182279791      1.51705130791207
  H          -1.18562090709057     -2.68041089349715      1.73695278173023
  H           0.45944943708287     -2.22301620385722      2.24807556883173
