73
Coordinates from ORCA-job TSA2S_3S E -110.223488386040
  Ru         -1.03510142870746      0.28022992817152     -0.50834164221325
  H          -0.48769288494817     -1.37782081000160     -0.57368903345451
  N           0.00044541415519      0.33277453490162      1.32686881149596
  C           1.35423543956272      0.25722129549105      1.27221869890006
  C          -0.61844879218352      0.34334826663521      2.51093197159695
  C           2.10331576675380      0.19687459160326      2.46082861088574
  C           0.07797488969085      0.29033426363629      3.70718999884361
  C           1.46614916003085      0.21870474688110      3.67640828118970
  H           3.17838213510630      0.13199371195745      2.39515208245177
  H          -0.45903117939813      0.30399537493978      4.64115316174806
  H           2.02974574568397      0.17902445768449      4.59617137609734
  P           1.02365408335313      1.01035165249138     -1.29656482696112
  C           1.72045826656422      0.41009521730101     -2.95467647666222
  C           1.40705261312428      2.87226270349767     -1.08267852989638
  P          -2.79309353152595     -0.06936589238012      0.89899922045100
  C          -4.03733819410066      1.30022290492585      0.64458107538859
  C          -4.15028787731262     -1.25252902507107      1.40946281467506
  C           1.98208738111072      0.15564348584721     -0.02510499466115
  H           1.78456005171843     -1.18790092910217     -0.33492764235649
  H           3.05834827963642      0.31514950612626     -0.02480256088260
  C          -2.11772163947768      0.43542132637236      2.52930981795615
  H          -2.54412349119651     -0.17613986914937      3.33072645430968
  H          -2.42879220487355      1.48009008298262      2.68059785853594
  C          -1.97031269404271      0.23657334668252     -2.09898854129092
  O          -2.60105515456541      0.27486762495766     -3.06215625052184
  H          -1.46612764552110      1.74486251021090     -0.32897347305987
  C           3.22668181795384      0.16073210512074     -2.90243513294159
  C           1.02803224985838     -0.91855804073150     -3.26554863236445
  C           1.35415641483708      1.38748032825344     -4.07113535202149
  H           3.45097258645364     -0.64981548520272     -2.21368072669541
  H           3.57097183288345     -0.13648857736690     -3.89253152073332
  H           3.78429647678693      1.04293687522630     -2.60498540690462
  H          -0.05514907953042     -0.79021752111264     -3.30562865550124
  H           1.36178390545144     -1.28697432825847     -4.23501518733061
  H           1.28106986524063     -1.66799594258523     -2.51881111215346
  H           0.29676122879809      1.64353437988737     -4.00929821037761
  H           1.94788685861001      2.29621694201277     -4.03520876141557
  H           1.53249596742242      0.91698066504866     -5.03779739978826
  C           1.16345813048019      3.20148754838479      0.39291859748455
  C           2.85317938935452      3.23751931117508     -1.41124707390131
  C           0.42532487143818      3.69663175436398     -1.91625685449453
  H           1.88166459267410      2.70075628937693      1.03962006545468
  H           1.26447355011232      4.27485122926970      0.54923389592901
  H           0.15520438831333      2.91182455055657      0.68968851675585
  H           3.07048474324762      3.14219630047606     -2.47091233430012
  H           3.03130579971933      4.27551254410869     -1.13048770794612
  H           3.54760370656955      2.61653677742192     -0.84784912173617
  H           0.69679694798906      3.72104480476283     -2.96590619258943
  H          -0.57773900731425      3.27845469646167     -1.82183067500609
  H           0.40369044507080      4.72324671879614     -1.55327545505438
  O          -4.50416957400863     -1.45645679563088      2.53521009586548
  O          -4.70024268539388     -1.76853762547714      0.32176953458961
  H          -5.46603051023093     -2.33661814669976      0.52065397368344
  O          -4.17889088810711      2.25566167771286      1.35295379039618
  O          -4.70526904501465      1.06480881478531     -0.47295249002051
  H          -5.29831736720249      1.79886841192387     -0.71448532669655
  C           0.08149275735251     -2.43695376296249     -0.29678050210913
  O           1.38252264044185     -2.35191124415750     -0.60385927232068
  C          -0.18459972258257     -2.67332198287145      1.18220673793238
  C          -1.47440209012820     -2.81505775128837      1.68089874244576
  C          -1.68990176334241     -3.03580856979725      3.02942929994242
  C          -0.61494572918428     -3.12212327084332      3.89851621839626
  C           0.67326728844958     -3.01100843458416      3.40652929477436
  C           0.88669870937804     -2.79317843624403      2.05761796184279
  C          -0.62928198911581     -3.49472039407242     -1.15269747033105
  H          -2.31535445617897     -2.79579127388930      0.99869276841939
  H          -2.69885570569983     -3.13730129542858      3.40265745175879
  H          -0.78336110418663     -3.28759766031091      4.95239615325015
  H           1.51810346813771     -3.09427742758028      4.07464731830214
  H           1.88923619398749     -2.72232843757128      1.66219472295621
  H          -0.26657830887448     -4.47742930190530     -0.85595820649172
  H          -0.38576972379486     -3.33778310473028     -2.20034421766643
  H          -1.70804058575913     -3.45531292141645     -1.03061240385284
