22
Coordinates from ORCA-job NEB_reactant E -45.923536171420
  C           2.01161611008140     -0.21525251396859      0.54066223470030
  C           1.87191970864647      1.07014192036870      0.87164111751157
  O           2.07504049982875     -1.27360853008034      1.43548151634672
  H           2.04992431989369     -0.45038676838285     -0.51091183303507
  O           1.78288956679074      1.96418032646982     -0.15639671831423
  C           4.09102530300727     -0.60446057534965      3.68887950127619
  C           3.60467824634432      0.53308488960059      3.22226156035652
  C           2.14945828303497      0.88307329546525      3.22857558567088
  O           1.78340034708461      1.65312882808756      2.10550099253480
  C           5.54570617567230     -0.94120072858809      3.65911122776208
  H           3.46870381098529     -1.38250577669047      4.10271831549767
  H           4.25945687230638      1.28195638366939      2.79556834403101
  H           1.93978183549137      1.53777868127272      4.08247817720175
  H           1.53615076169997     -0.01927244833999      3.30431587601908
  H           2.52448774298620     -2.00726800384994      1.00502678074624
  C           1.50438525134797      3.30814014690335      0.18461172648927
  H           1.43779264941227      3.83522334181268     -0.76487072733612
  H           2.30359580310624      3.73967739456171      0.79264043717114
  H           0.55889232722459      3.39360277450933      0.72539761314031
  F           6.32422700775833      0.06729945144941      3.24523527036662
  F           6.00650510754512     -1.30908766991132      4.86812578055535
  F           5.79966226975174     -1.97834441900925      2.83584722130791
