20
Coordinates from ORCA-job NEB_reactant E -49.544938818430
  C           1.67529715068462     -0.11747498390805      0.13888051336552
  C           1.36073947972985     -1.38705745452497      0.40471744558829
  C           1.68620913488817      0.58352163485806     -1.17753339172818
  H           1.92427774256785      0.53909246023726      0.95594437056274
  I           1.35379076173043     -1.98959492975389      2.43583880866961
  C           3.01899340318498     -4.00900058133514     -2.65711312191536
  C           2.65215997804285     -2.92483198640766     -1.99604212991288
  C           1.22404648112690     -2.57367325514551     -1.71388025658472
  O           1.00213692596123     -2.43687819298278     -0.30799029836573
  C           4.44749204296848     -4.36272020449243     -2.94347304453256
  H           2.30593159494153     -4.70917934160247     -3.06694655216812
  H           3.39758680629311     -2.24194105348040     -1.61174411271760
  H           0.55932016156194     -3.38938173100481     -2.00744944854977
  H           0.93115586371065     -1.67329192560658     -2.25808660276531
  F           2.61281970168369      0.12352234248451     -2.04424631698836
  F           0.50896408692520      0.50961908644364     -1.83774391908299
  F           1.94127296664921      1.88322334961785     -1.01267103745278
  F           4.64382389800420     -4.50048030967515     -4.28013064101323
  F           5.30799900616764     -3.40895752126056     -2.52456015536783
  H           4.74698281317748     -5.31531540246091     -2.47147010904075
