20
Coordinates from ORCA-job NEB_product E -49.561125054280
  C           2.73763300957265     -1.34387000788023     -0.59908998571146
  C           1.40658620823667     -1.25594957811433      0.10663652812182
  C           2.99042014197869     -0.01302177836711     -1.32736910297816
  H           3.55293100678369     -1.44318206581349      0.12798016592958
  I           1.26739241972058     -2.64638158077501      1.75445307695170
  C           2.70607845078449     -2.62088239495448     -1.48301444187680
  C           1.50575860805400     -2.66895127285720     -2.39341680291089
  C           0.50466769264390     -3.50897263969848     -2.21303062025613
  O           0.48881095361079     -0.57266982209519     -0.16534013210123
  C           3.99376781112363     -2.80413887490675     -2.29777556497569
  H           2.66598518365899     -3.47043681834517     -0.78967270712672
  H           1.50618436979480     -1.96757387902945     -3.21428657643525
  H           0.48553054392347     -4.21756404300591     -1.40010291345925
  H          -0.34257131996724     -3.51899841532532     -2.87510801811024
  F           4.26430349173475      0.11566480438048     -1.69618512693486
  F           2.23433909338059      0.17891454932713     -2.40499450828703
  F           2.74637773706042      1.00962905544944     -0.48999462420687
  F           4.09856382067052     -1.90562519609840     -3.29571951859874
  F           5.08235259103375     -2.65327172243927     -1.50903823762605
  H           4.03658818620084     -3.80801831945125     -2.74913088940773
