24
Coordinates from ORCA-job NEB E -45.437971077870
  C           0.31591827983624      0.08451148020127     -1.06279934157867
  C          -0.81894681107576      0.59234786509303     -0.38077018932814
  C           0.11689615104187     -0.71519090491577     -2.32132246362397
  H           1.11436588642595      0.80292446194824     -1.23584695119872
  C          -0.75847279117353      1.98031204358993      0.20681934495227
  C           0.97036380667872     -1.30356476113627      0.14923095826582
  C           0.00246283869916     -1.47910987322913      1.15964674232207
  C          -1.32754504191364     -1.66535538602380      0.72103290320448
  O          -1.74293611623425     -0.19703947401775      0.02439062854491
  C           2.24877561310936     -0.81689601023366      0.54815657617138
  H           1.03266506825108     -2.08333700194072     -0.60409323808195
  H           0.15764109768202     -0.95578387753466      2.09442949688798
  H          -2.10063173785291     -1.73026176379755      1.47604460900657
  H          -1.49041972724498     -2.34107430942930     -0.11106826185509
  F           1.26584899082313     -1.24832337072377     -2.77323696593106
  F          -0.75625043244932     -1.72449229410389     -2.23903758881498
  F          -0.32863338310907      0.08255565433192     -3.31122601295600
  C           0.08605674139823      2.02532768441883      1.48403300091518
  H          -1.77813624948660      2.28853435830970      0.44136220733297
  H          -0.34355929211640      2.66508898150103     -0.53322544108384
  H          -0.35432923153434      1.39526232389969      2.25250787464872
  H           0.12202095044967      3.04449537307491      1.85880937429754
  H           1.10322092207935      1.69069988066756      1.29407393581398
  N           3.26362446771602     -0.39163107994983      0.86208880208853
