24
Coordinates from ORCA-job NEB_reactant E -45.482035296460
  C           1.70836273789718     -0.13255542037384      0.54346370461989
  C           1.13545121882403     -0.18016926125302      1.75493830872968
  C           2.17010384524839     -1.20704561866008     -0.37088456746900
  H           1.84969034290115      0.84276770236824      0.10677669405680
  C           0.75350348066770      1.11422857028126      2.43122758986010
  C           3.47784421202469     -3.72304770603048      2.52256409149051
  C           2.70507397739018     -2.68536054131594      2.83456023794301
  C           1.28694563943000     -2.53005002056022      2.37974023034116
  O           0.81395829607452     -1.20528958028280      2.55516768682630
  C           4.79264628499597     -3.84824935236444      3.01001870996858
  H           3.13616686715537     -4.52133587971378      1.87752796592389
  H           3.07687274352984     -1.89626845860903      3.47478465312870
  H           0.63584628355630     -3.12400956998964      3.03474245751176
  H           1.14469274100220     -2.89416194926195      1.35973542309974
  F           3.18454887882570     -1.96682870782785      0.10138587707575
  F           1.20294182739557     -2.09122907321858     -0.71989364916544
  F           2.61369034366339     -0.68569636017346     -1.52246178081556
  C           1.88864344956361      1.58952987224919      3.33931422265540
  H          -0.13717283158482      0.93158356853120      3.03290404428492
  H           0.52969293273256      1.87548467203655      1.68618276808921
  H           2.09897716659727      0.84681801697742      4.10467392321260
  H           1.60858217104452      2.51792866080046      3.82936663764999
  H           2.79332306538804      1.76008949498577      2.76084308152596
  N           5.86121432567664     -3.95913305859497      3.41022168945605
