24
Coordinates from ORCA-job NEB_product E -45.488424920120
  C           2.54374742500709     -1.02259429952789      1.18110373877381
  C           1.11603946842397     -0.50537453309998      1.46758757537979
  C           2.73917512907957     -1.00141550143348     -0.33316869740845
  H           3.29745201130370     -0.35488691320125      1.60802095322272
  C           1.02887753891515      0.94447687897838      1.85445388625000
  C           2.68704250275903     -2.45438832060884      1.73976237445420
  C           2.49740614307022     -2.44345139123417      3.23796747392873
  C           1.51296894683827     -3.07147433653323      3.84906023874998
  O           0.17295369793901     -1.24130693815265      1.39076480581203
  C           3.99477326705838     -3.00783267683190      1.45788980332843
  H           1.92283320861479     -3.08921054243900      1.27473453288314
  H           3.23909972780388     -1.88285693141976      3.79135967720555
  H           1.40506613856814     -3.04211126488351      4.91946624977156
  H           0.77090704716370     -3.63167187788844      3.30539871333980
  F           4.01196147658605     -1.21020416062728     -0.68977895713081
  F           2.00074998042966     -1.91354039537189     -0.96669157012842
  F           2.40461903717074      0.19580985838649     -0.84978717353695
  C           1.45775127661147      1.12143325436420      3.31481060684906
  H          -0.00670307129861      1.26678017637583      1.74041528646355
  H           1.66607245286188      1.54439034336636      1.20314402949990
  H           0.84999017641453      0.49601513725335      3.96413271219885
  H           1.32491482650226      2.15883195507006      3.60878496913498
  H           2.50252344718395      0.85713353926277      3.45827532201229
  N           5.03237814499316     -3.45425105980417      1.29049344894627
