21
Coordinates from ORCA-job P E -24.512904401050
  C          -1.37572178917177      0.33092532287299     -2.40713294556821
  C          -0.20459399782265     -1.74894885867019     -1.03528078098563
  C          -1.60515258328529     -1.91708875627811     -1.52754046082612
  C          -2.16145488055063     -0.92973134579746     -2.21074818867404
  C          -0.80471943918603      0.74072143797382     -1.04040154628533
  C           0.01983438672204     -0.37377953057651     -0.37253749209076
  H          -2.11524912540109     -2.84705206643104     -1.32757852449882
  H          -3.16572329628838     -0.98406291078345     -2.60171128095863
  C          -2.21608204668035      1.45026941873622     -3.01073818386957
  H           0.06837401991973     -2.54323160313308     -0.33904935742140
  H          -0.52833426376452      0.12121856213778     -3.07160682094881
  H           0.47973453193113     -1.79787953458145     -1.88855621437208
  H          -1.64052206343273      1.01406776292130     -0.39309252801524
  H          -0.29802980956597     -0.45044193842982      0.68430241923235
  H          -0.17018410250175      1.61941784360244     -1.16401931600334
  N           1.43915129806309     -0.05525275942666     -0.48828611631332
  H          -2.60447541221170      1.15193806720587     -3.98212310591055
  H          -1.61924908395360      2.35035307837124     -3.14141915036816
  H          -3.05673519869274      1.68740120897711     -2.36128435524396
  H           1.65545875680004      0.79414771776816      0.02272679610898
  H           2.00034409907320     -0.80325111645917     -0.09417284698737
