21
Coordinates from ORCA-job R E -24.433801469660
  C          -1.29072136891075     -0.06216010752553     -2.79512528881756
  C           0.13786980584687     -2.66994081729284     -2.16207782922109
  C          -1.09360502576105     -2.32632651801571     -1.79282281456859
  C          -1.80808913481766     -1.12096180600182     -2.17364974120175
  C          -0.67152284543153      1.96874046916484      0.30662130958475
  C          -0.45954212383275      0.65929969961857      0.34184931259156
  H          -1.64321208486898     -2.99324587146054     -1.13937544450568
  H          -2.85171718329589     -1.09566142596252     -1.88603968181820
  C          -2.04910685074573      1.17814177193884     -3.10806957442633
  H           0.59671803892527     -3.58117070337907     -1.81826605977290
  H          -0.24753432418179     -0.05211583427043     -3.08121999153976
  H           0.72743477390715     -2.06710849959246     -2.83238252236272
  H          -1.59190320628929      2.39585566374308      0.65652489747912
  H          -1.22160541622473     -0.01851154456063      0.70220439581822
  H           0.08142581011520      2.65253850031221     -0.04892084558597
  N           0.72760998742163      0.03171554600667      0.01657594075305
  H          -3.10319692905274      1.06459819819868     -2.86734209054452
  H          -1.95156905837933      1.43486547034524     -4.16267563514655
  H          -1.64641643684541      2.00790448590383     -2.52590252820927
  H           1.37667451823339      0.61118057451934     -0.49592605775953
  H           0.62914905418812     -0.89510725168973     -0.37020975074627
