23
Coordinates from ORCA-job NEB E -31.563167229700
  C          -0.41057558761516     -0.98385377658775      1.07788738478509
  C          -1.72250321848907     -1.25142797433999      0.71238429674074
  C          -0.16067636087266      0.19970312035396      1.97561456187641
  H           0.21912528037134     -1.83894973250750      1.30052393696998
  I          -2.11950462082775     -3.29168253450169      0.02421609080275
  C           0.23884219365242     -0.40886839780889     -0.73115186450384
  C          -0.67592859651301      0.59424732103581     -1.02903639901390
  C          -2.04106265953262      0.24509468270791     -1.18963714122528
  O          -2.51586852904714     -0.36318929271434      0.28763655020177
  C           1.72370198004152     -0.14512182588526     -0.60655998125213
  H           0.04558848565146     -1.37784771533040     -1.18414846651282
  H          -0.44868529426452      1.61513824566044     -0.76396582414181
  H          -2.25897060430811     -0.62297046482122     -1.80673447389162
  H          -2.74813113654453      1.05163900804880     -1.33398986540841
  H          -0.79778704150984      1.03722537829068      1.70467062705833
  H           0.88082104391482      0.50390476861354      1.93963815957670
  H          -0.38873850036074     -0.08633604415249      3.00289420734512
  C           2.13064122560113      1.32303827714000     -0.54753743040711
  H           2.19791353614221     -0.59593516988918     -1.48367433359966
  H           2.12398319110729     -0.67082032535483      0.26309794540561
  H           1.82912559416188      1.83815991805558     -1.45623894537637
  H           3.21234189637668      1.39563942897711     -0.45874836635783
  H           1.68634772286441      1.83321310500971      0.30285933092829
