23
Coordinates from ORCA-job NEB_product E -31.607919929070
  C           3.05902858034278      0.28951596269861     -1.32872102696253
  C           1.91310619379711     -0.66123037128143     -1.21736396336705
  C           2.73409829805982      1.53534912157728     -0.50498793624872
  H           3.95911168488284     -0.19422460847155     -0.93911937514819
  I           2.50768858755947     -2.73050629936445     -1.65044167018004
  C           3.27925235802321      0.55529347407153     -2.84949476230506
  C           2.45107016800145      1.70819759143510     -3.33374271682548
  C           1.35053050460518      1.56602729241856     -4.04781343499335
  O           0.78149775312107     -0.44493363229405     -0.97328064977926
  C           4.76821873779250      0.71873811348826     -3.20116635516962
  H           2.94273459667740     -0.33754365864350     -3.39171420297344
  H           2.80526307805134      2.69528409451451     -3.07440840284143
  H           0.97056329439918      0.59529160981696     -4.32326534274676
  H           0.77749213796831      2.41201896714547     -4.38657489365113
  H           1.78649392104799      1.96317708486502     -0.82245101042050
  H           3.51290318288215      2.28269683277974     -0.61299390675735
  H           2.65325549110338      1.26964815767319      0.54754809714541
  C           5.51515236666172      1.82126618688780     -2.46129638001091
  H           4.82502932975043      0.91108385823677     -4.27523636851760
  H           5.26986281569289     -0.23374799403035     -3.01341066202675
  H           5.04259055246753      2.78897223399772     -2.60780573697747
  H           6.53143711642864      1.88548643768114     -2.84370513069291
  H           5.57451925068362      1.61433954479766     -1.39575416854987
