23
Coordinates from ORCA-job NEB_reactant E -31.587397016210
  C           1.34253942319639     -0.37241182600170      0.16755182293095
  C           1.85297805593229     -0.42871047694622     -1.05197561755663
  C           0.27079017059141      0.58666355130958      0.57163639790162
  H           1.69358458467203     -1.05582793833373      0.92488717906971
  I           3.36837613855431     -1.90454378335867     -1.46805703953428
  C           4.12872354993245      1.19110884328269     -3.82517188984342
  C           3.63901910322705      1.35503983991553     -2.60641872097704
  C           2.17972225733612      1.54479524942172     -2.32264648766497
  O           1.48034502095753      0.30708219568469     -2.10759705659340
  C           5.56794858756081      0.95193655533378     -4.13682673795944
  H           3.46480604475165      1.22951411490016     -4.67991130221317
  H           4.29105356459139      1.30938079576113     -1.74394845782844
  H           1.66872346605600      1.98091079216894     -3.18394715391309
  H           2.03861301015587      2.18954512509395     -1.44535579766878
  H          -0.09608118601437      1.14779204316815     -0.28393001388973
  H           0.65240599401003      1.28107766270386      1.32063719945154
  H          -0.55933200288900      0.04070150891844      1.01739280096437
  C           6.10283214792923      1.98833871977148     -5.12384913372217
  H           5.66637297749098     -0.04437375325121     -4.57748724220892
  H           6.15598819256135      0.97217428232711     -3.21787273425343
  H           5.53580009969585      1.96158181182478     -6.05173282996364
  H           7.14692024494047      1.78959753512567     -5.35244829606932
  H           6.02547055476014      2.98812715117989     -4.70202888845834
