18
Coordinates from ORCA-job NEB E -41.348317735480
  C           0.54397613046654     -0.60603184104240     -0.27668897927559
  C          -0.74140750852895     -0.23712850608713     -0.83715777906825
  O          -0.16141882098161     -1.41952948253978      0.68382494964866
  H           1.26773046900679     -1.22877398984438     -0.79416823029671
  C          -1.27960922407690     -0.98430540848238     -2.16166982209878
  C           1.30341749786224      0.65382740938417      0.20314897591445
  C           1.17648077839675      0.63462483709569      1.70575942498064
  C           0.05772507342948      0.98119475359284      2.34041172070604
  O          -1.38966154856694      0.69343657953874     -0.45082828343309
  I           0.70839743426645      2.58247083588477     -0.55981133092300
  H           2.34469052440703      0.53340711439420     -0.07978174733478
  H           2.01985788545748      0.16431538949306      2.21254381550443
  H          -0.81367039588286      1.09615368496810      2.93717823234050
  H          -0.51586279756480      1.61050760966419      1.51903597371880
  H          -0.12270944174747     -0.86431522420066      1.51057027796213
  Cl         -0.91339692324423      0.19559920334030     -3.39802580781876
  Cl         -0.46200508162667     -2.53233709599691     -2.49993164094608
  Cl         -3.02253405107231     -1.27311586916239     -2.05440974958062
