24
Coordinates from ORCA-job NEB_product E -49.245870705500
  C           2.61968862469710      0.78801165197147      1.03986018586419
  C           1.32263018875601      1.58882509372472      1.21213947599280
  C           2.31663552132367     -0.68171379663032      0.77583921172532
  H           3.17446680628264      1.16078104657495      0.17289138211385
  C           1.49607570318478      3.03831634068762      0.80753088606520
  C           3.53827123397279      0.94906620045114      2.28152613050274
  C           2.80057927130124      0.69565254791824      3.56883955288866
  C           3.06211779536753     -0.32087673732370      4.36751433128187
  O           0.31067928220753      1.12023642780103      1.64018247502321
  O           4.05722744322243      2.26574077195483      2.21078101724841
  H           4.36803880954719      0.22763867832931      2.18527232311712
  H           2.04015542204873      1.42362146168682      3.81273520191550
  H           2.51620249341978     -0.47534133300459      5.28108671429753
  H           3.81819589068808     -1.05138174985994      4.12926062686149
  F           3.45255173584016     -1.37356346853675      0.55998510909801
  F           1.68157685035280     -1.30776196926224      1.76172299757143
  F           1.57811141372661     -0.82937343387414     -0.33212604865206
  F           0.39981953124384      3.78098462699445      1.13102286108527
  H           1.63363703080855      3.11004662291113     -0.27809057451595
  H           2.36619585193159      3.46144524557733      1.32341634283407
  C           5.09988338300690      2.50750487995978      3.12955120883663
  H           5.41754057325206      3.53398041342099      2.96142028054172
  H           5.94106399084730      1.82823697868909      2.95282881577333
  H           4.75795515297068      2.39052349983877      4.16230949252967
