18
Coordinates from ORCA-job NEB E -33.788983053880
  C           0.68619770745895      0.65232240628691     -1.38685430427829
  C          -0.36426779558371      0.80439610516658     -0.48191540509398
  Br          0.26911866401076     -0.06237093922126     -3.09354081562912
  H           1.44705249578508      1.41908165854297     -1.43788011400974
  O          -0.15032283519999      1.73383790425926      0.48782739723661
  C           1.55177264269696     -0.93005197468475     -0.41515484263341
  C           0.51533899916418     -1.84275360970313     -0.40103340139264
  C          -0.65127081076711     -1.50037091829547      0.33033497937321
  O          -1.26591685144500     -0.09812710277544     -0.35147769246797
  F           2.62796413122213     -1.17568512122623     -1.17672749307611
  H           1.83370286302510     -0.35702514905393      0.46466735756451
  H           0.43338005758949     -2.51974500257566     -1.23806717162882
  H          -0.50461047847898     -1.15108853881046      1.34752038719023
  H          -1.50007902323212     -2.16265515787864      0.22708030599673
  C          -1.06303018160172      1.77924045300365      1.57302273688692
  H          -1.22265326330838      2.83053308346131      1.80767285969982
  H          -0.63358468476828      1.27406495747221      2.44190948725698
  H          -2.00879163656737      1.30639694603207      1.30261572900507
