18
Coordinates from ORCA-job NEB_reactant E -33.814308629730
  C           2.06602249398253     -0.13861343280492     -0.00770969594964
  C           1.94744932193567     -0.23110719597850      1.32145551537397
  Br          1.99110465669234     -1.52260049298217     -1.29095571806624
  H           2.16411429805258      0.83912165247287     -0.44303203659702
  O           1.94925353183182      0.95895491478714      1.97801902096280
  C           4.54314470225413     -3.12666379025629      2.47947761187666
  C           3.70398819964163     -2.67107612293686      1.56930717616217
  C           2.22754513484452     -2.59760857197002      1.80916125090205
  O           1.80338513634823     -1.28250457368447      2.15547936211998
  F           5.86310180128538     -3.17227519693292      2.26617874462035
  H           4.27736170781139     -3.51304201528978      3.45388015158961
  H           4.08091094477049     -2.30674125550486      0.62542203272139
  H           1.95304892190793     -3.18790411080789      2.68693797527240
  H           1.67664582729192     -2.97054065705856      0.94154473294508
  C           1.90777805756592      0.93237313065651      3.39303928466666
  H           1.95067629211718      1.97627054723644      3.69572194859162
  H           2.76141915584438      0.38883959581777      3.80515555885548
  H           0.98294981582194      0.47621757523650      3.75301708395268
