25
Coordinates from ORCA-job NEB_product E -40.620972323630
  C           0.86013265657127      1.00234032977895     -0.40628107190061
  C           1.26696771563599      0.12700711383070     -1.58893174553919
  O           1.97588984548411      1.01107897958518      0.45761179311195
  H          -0.00109710867715      0.52757030812530      0.08884332778739
  C           1.71052099625652     -1.27226530157727     -1.19066710221460
  C           0.44106391631291      2.41687647573001     -0.85483855676486
  C          -0.65760723247065      2.35340416661956     -1.88021908068297
  C          -0.63631625747632      3.00196178691783     -3.02853694533268
  O           1.30489896658521      0.48755914878346     -2.73312931290079
  O          -0.00297241561173      3.09749450581050      0.31261270341283
  H           1.32249892827217      2.92851949143252     -1.27009590172989
  H          -1.52036018363395      1.77330369413832     -1.58075716543921
  H           0.21610501302464      3.58645294716413     -3.33219488859571
  H          -1.45643051558472      2.95295269065555     -3.72423086754961
  C           1.66527133078828      1.05019448890186      1.83557882127654
  H           1.07332953132621      1.93366384081293      2.08256409600537
  H           2.62283568912538      1.08686590880262      2.35148661383197
  H           1.12204988991504      0.14746844726766      2.13569090809995
  F           1.13140883199585     -1.69399865502387     -0.02635210310063
  H           2.79542846931780     -1.26066608151382     -1.03231440847040
  H           1.45297224003439     -1.99199112214408     -1.97390482190285
  C          -0.15181145209502      4.48313920506499      0.13303011044024
  H           0.80185687346199      4.94892612666205     -0.14354638972373
  H          -0.48676171658841      4.88013829629732      1.08936775854438
  H          -0.89427401196982      4.71160320787761     -0.63948577066291
