25
Coordinates from ORCA-job NEB_reactant E -40.622588619010
  C           1.45480064462519      0.21776649561245      0.20756476282370
  C           1.26440476835940      0.15672085711626     -1.11447410150163
  O           2.17556476526091      1.19423725905121      0.80769067580559
  H           1.02842650159743     -0.54518285653305      0.85013735414565
  C           0.37386977411209     -0.90099745800577     -1.71061232626651
  C           0.48093479923703      4.02192045932475     -1.57513610875371
  C           0.16811525327391      2.75660190305825     -1.82391314406176
  C           0.99895161452139      1.88772881553393     -2.71558155333635
  O           1.87746907470575      1.03902930574871     -1.97037739043400
  O          -0.14986134186822      4.90157885786956     -0.76618529425600
  H           1.32525672472132      4.50125649189039     -2.05271504234355
  H          -0.66399215875379      2.26521039212820     -1.34368936696688
  H           1.66805726015728      2.48412559142502     -3.33812473102010
  H           0.34796656171780      1.28087334659320     -3.35986427217017
  C           2.48845688399133      0.97496964819149      2.16186102927908
  H           2.96793798780832      1.88558723000724      2.51599046081685
  H           3.17900441675755      0.13285752559650      2.27959624036231
  H           1.58773059756049      0.78318580044113      2.75554786392703
  F          -0.96055155205503     -0.52674931623162     -1.65413380146328
  H           0.44416880317375     -1.84302397487715     -1.16023095135157
  H           0.60839898113594     -1.05889499809805     -2.76701497168191
  C          -1.24777162933887      4.42511445590180     -0.02338762742903
  H          -1.58455318417705      5.26103362359909      0.58739411734056
  H          -0.95387527502943      3.59180641789131      0.62209190191889
  H          -2.06051027149450      4.10064412676516     -0.68063372338323
