21
Coordinates from ORCA-job NEB E -33.748628145670
  C           0.07978605250251      1.50158849159864     -0.69536466629881
  C           0.24156962889525      0.17257918971265     -0.35185862803892
  C          -0.98483741612094      1.78494246403427     -1.76914689566495
  H          -0.14733132347222      2.10507582225447      0.18518852551011
  F           1.43240266366876     -0.44789257406168     -0.58562633474798
  C           1.47120706140286     -2.42072027332656      2.07760136106610
  C           0.17202945351396     -2.17671668802806      1.84542441840675
  C          -0.39205065352437     -2.05238152941136      0.48318512527968
  O          -0.62136530332422     -0.61912323220772      0.16332159049333
  C           2.00139267315799     -2.49696526321855      3.37477926545025
  H           2.17540509816831     -2.58085547712832      1.27116583915559
  H          -0.50557701904308     -1.99805853632023      2.66813542361887
  H          -1.39189419126015     -2.48050364625501      0.41091151844880
  H           0.27090707864886     -2.46986531481408     -0.27774231839303
  C          -0.88070842394402      3.23544121127561     -2.21721242739873
  H          -2.00484933546159      1.58819763276960     -1.40857854498921
  H          -0.79839045950601      1.12806348658303     -2.62137880547393
  H          -1.09776384542538      3.90677602575179     -1.39018557562715
  H          -1.58876501850141      3.43094249004023     -3.02019153123532
  H           0.12330247154131      3.44567038053708     -2.57447348117550
  N           2.44553080808359     -2.55619465978578      4.43204614161402
