21
Coordinates from ORCA-job NEB_reactant E -33.862888375060
  C           2.60818653981284     -0.51625157442366     -0.70309304258017
  C           2.77905591673425     -1.82290898240880     -0.59209241332214
  C           1.26855526009883      0.13960316837409     -0.81184703377457
  H           3.48549110924415      0.10707175901596     -0.76237336931371
  F           4.03101498638548     -2.34303514384153     -0.49765886991012
  C           3.28116586730537     -4.35837699444488      2.22877949967213
  C           2.30006144539896     -3.77536409487321      1.54374533538152
  C           2.07525387240875     -3.97448685929602      0.07836795249590
  O           1.80118868776198     -2.74900288356545     -0.58876246743007
  C           3.45964134910177     -4.15208620239405      3.61085069711361
  H           3.99031520300969     -5.02761312933707      1.75860228481496
  H           1.61323068614148     -3.09445339179037      2.02989526473671
  H           1.17225913897671     -4.57293380368306     -0.08393771937726
  H           2.92932773656814     -4.48430346983842     -0.38420706704304
  C           1.07236487705301      0.76654916685475     -2.19197734042190
  H           1.19303851532536      0.92110701640548     -0.05132136505673
  H           0.48904577476223     -0.60049122796733     -0.62989661242313
  H           1.84491839718477      1.50665237605214     -2.38723254712131
  H           0.10273770106467      1.25465106731332     -2.25041992240595
  H           1.12371588019412      0.00256908909980     -2.96368113226231
  N           3.61183105546742     -3.98869588525171      4.73525986822758
