17
Coordinates from ORCA-job NEB_product E -41.616058366750
  C           1.66360582273432     -0.13560010908301     -1.60916773062895
  C           1.13984542582241     -1.04986587641045     -0.51600035306982
  C           1.28325257765112      1.30926995867169     -1.27422825104355
  H           2.75804727349368     -0.19060759530376     -1.59544444836212
  F           2.16240507166870     -1.72424564424101      0.06298535918745
  C           1.13969718557592     -0.70890854437989     -2.94604454230093
  C          -0.21228314617813     -0.25219435430425     -3.36401208067599
  C          -1.25551256312240     -1.06116711945296     -3.40823130374852
  O           0.03277172515960     -1.26020837449977     -0.18124808282510
  I           2.56115937728627     -0.31764058493842     -4.55488945963624
  H           1.15108012852556     -1.79819193395833     -2.85979627427160
  H          -0.29345842388786      0.77997169121141     -3.67146608729035
  H          -1.19040166213543     -2.09635371033670     -3.11596894425873
  H          -2.22226196784709     -0.71164710088043     -3.72397202468362
  Cl         -0.45629138169023      1.52312449807915     -0.98580548442673
  Cl          2.14017907035372      1.74496386117270      0.24463022419556
  Cl          1.80176548658985      2.43130093865402     -2.54124051616076
