20
Coordinates from ORCA-job NEB_reactant E -35.041528068800
  C           1.16384730434548      0.20946095631303     -0.29148477837764
  C           1.11271924037339     -0.56179203474486     -1.39392124092435
  O           1.00403245497289      1.55755856842710     -0.26191970130477
  H           1.33327879570377     -0.28223956971441      0.65999501322439
  C           1.24874944927492     -1.95978790396801     -1.19537362963842
  C           2.66333362867951      2.94703711221339     -2.48302933607598
  C           2.41615642245472      1.68352301072401     -2.82174805249766
  C           1.04301639299168      1.14034393428674     -3.05978806592224
  O           0.92921601929865     -0.22140312251734     -2.70692964556567
  C           3.96602897509490      3.42747642201040     -2.25355969302530
  H           1.86689347943566      3.66847572699398     -2.35403278672064
  H           3.22532554488594      0.97362829863192     -2.93916809901274
  H           0.82772368007926      1.15038161308677     -4.13570232130699
  H           0.28978587497382      1.74619841065178     -2.54251269936596
  C           1.42078372892467      2.19301418914055      0.92642668528921
  H           1.07348670536837      3.22237440215528      0.86208233796319
  H           2.51183257359942      2.18271756364295      1.01383688396586
  H           0.98301891268722      1.71352453597073      1.80672363466119
  N           1.36953233321866     -3.08616682045252     -1.02137592562770
  N           5.02123848363707      3.82757470714852     -2.04971857973778
