20
Coordinates from ORCA-job NEB_product E -35.031532634190
  C           2.28962840135651      0.51927713879976     -1.08565118204363
  C           1.62843708370521     -0.61556581969068     -1.86763278876362
  O           1.52138585887039      0.76109002238597      0.05870161895070
  H           3.29894178495044      0.15641395953194     -0.80996334410839
  C           0.75802783902770     -1.42835977609333     -1.03738458046042
  C           2.44915011566385      1.74336916846558     -2.03692032647790
  C           1.12393885316755      2.42724970824479     -2.25594931427864
  C           0.57171047400738      2.56692666889405     -3.44479348959319
  O           1.81952165828768     -0.83502613053479     -3.03346894627522
  C           3.40630634684566      2.68490327450700     -1.50715187645779
  H           2.83841813744076      1.36313450813431     -2.99034063828930
  H           0.64053123428438      2.78988754727929     -1.35968926513874
  H           1.04448107695880      2.20270040606280     -4.34240590155844
  H          -0.38073193882271      3.05224913400129     -3.56802436686244
  C           2.20855755764111      1.35586176279182      1.13937097611613
  H           2.54344640227693      2.36902177860665      0.89968409364587
  H           3.07402729124761      0.75293221152351      1.43478005795495
  H           1.49315244417612      1.39101186992656      1.95775508907220
  N           0.08873848605697     -2.09960943516713     -0.39741402252852
  N           4.16243089285766      3.43483200233061     -1.09090179290360
