22
Coordinates from ORCA-job NEB E -32.552636657280
  C           0.51739577760972     -0.77873596500493      0.87606447308314
  C          -0.75228263949260     -0.57907806341054      0.28437305963697
  N           0.71674417139535     -0.56716475320161      2.24060862962322
  H           1.17012656852570     -1.52955312317454      0.44490400616218
  C          -1.12377525193029     -1.24400390529233     -1.02805226478541
  C           1.30526934242954      0.93541947677413      0.15826841952219
  C           0.46645787468901      1.89228080881629      0.73118930696643
  C          -0.85871196802249      1.96191060346870      0.30254105990347
  O          -1.49847132264682      0.34237087667499      0.76504582252974
  Cl          2.94163933672228      0.83445601735776      0.73053943819903
  H           1.25651094024638      0.73650758397380     -0.90194898649138
  H           0.71329479783876      2.24774346232565      1.72079345267937
  H          -1.07385004448819      1.86159530815066     -0.75198387252545
  H          -1.53882518002356      2.60794724033196      0.83533097478099
  H          -0.10007148890594     -0.18915287250029      2.69930387876466
  H           1.15307430947692     -1.32337130859115      2.73999159695892
  C          -0.16573447559952     -1.03725746565556     -2.20068312142383
  H          -2.11456394195911     -0.87584081947722     -1.30185159440494
  H          -1.21028617289808     -2.31814672346144     -0.83733085515829
  H          -0.13069429968630      0.00806955195986     -2.49882734857800
  H          -0.51238821780613     -1.61559701996751     -3.05461059079649
  H           0.83914188452536     -1.37039891009669     -1.95366548464648
