22
Coordinates from ORCA-job NEB_reactant E -32.585771103400
  C           1.56250937422513     -0.15378604901410     -0.02543563645355
  C           1.35290710707825      0.49569278399685     -1.17331675880685
  N           1.58526484077392      0.42702136374059      1.24760172665685
  H           1.80965800467095     -1.20414191254302     -0.05688622547884
  C           1.30371475708908     -0.20804127439731     -2.50352312315026
  C           3.44374111752290      3.84674791088382     -2.46780683981441
  C           3.22882153282035      2.84041623443793     -1.63957792902654
  C           2.02354857383463      2.76187707485424     -0.74687791313293
  O           1.04624291047225      1.85358875696622     -1.23070117329912
  Cl          4.81091041052455      3.92301521365164     -3.51055082333364
  H           2.79056758284771      4.70178283437197     -2.55139404926272
  H           3.90701266389767      2.00092857660382     -1.59644965129159
  H           1.51035462083684      3.72653406627985     -0.71282969882647
  H           2.35416592430936      2.48118371966863      0.26028888493297
  H           0.94452672652057      1.20510197000110      1.33395315896493
  H           1.45256004622244     -0.24077401478309      1.99263854092255
  C           2.56605202944758     -0.00299005847301     -3.34182769282227
  H           0.44639332704428      0.18352284130804     -3.05520239862710
  H           1.14801041773652     -1.27460290324599     -2.33591090435842
  H           2.70360380999466      1.05024966533183     -3.57187332301991
  H           2.48493730243888     -0.55124281095641     -4.27774311698780
  H           3.44169691969146     -0.36358398868361     -2.80607505378488
