16
Coordinates from ORCA-job R E -26.105768265820
  C          -1.21885517360661     -0.02121947010652     -2.88406377203456
  C          -0.03222756266965     -2.60163695399907     -1.88374819846008
  C          -1.30935827542276     -2.24224227050769     -1.80628001534805
  C          -1.88502002747239     -1.00134324221605     -2.28665426592904
  C          -0.82914889026464      1.82013307596129      0.13961323332471
  C          -0.19812855368180      0.67090993183037      0.26721522298404
  H          -2.01928763713601     -2.91672021905826     -1.34525567298771
  H          -2.94881763188231     -0.87452761238318     -2.14024274338522
  F          -1.84728977085514      1.09631010712662     -3.28777405752467
  H           0.30780987854391     -3.54398864460066     -1.49097566851957
  H          -0.16408625983873      0.01671683263924     -3.10559206740442
  H           0.72193658861728     -1.97236050216121     -2.32166162394091
  H          -1.79544187357894      1.96494270143322      0.58878848766718
  H          -0.59184251471002     -0.18320331714019      0.79474528905536
  H          -0.40698402802628      2.64859697305179     -0.40124876701383
  Cl          1.34986173198410      0.38491261013029     -0.42567538048321
