16
Coordinates from ORCA-job TS E -26.091115758070
  C          -0.53841966629188      0.74246524380343     -1.26122754347298
  C           0.72379887384372     -1.49490970899167     -0.03918643507659
  C          -0.60003687344926     -1.48087936219330     -0.32305791780743
  C          -1.22612912432608     -0.39518508724555     -0.97012941009679
  C           0.01123144451842      1.36354317090254      0.76977849533138
  C           0.83419903411016      0.44172910565522      1.32842887321362
  H          -1.24558163293918     -2.23812071738981      0.09973502387931
  H          -2.30491945059766     -0.36415505344728     -1.01437348873700
  F          -1.20820561498144      1.81121048440829     -1.73176436187583
  H           1.14389015249968     -2.28342644386858      0.56321464291200
  H           0.50413292885513      0.78769600052621     -1.53656180231510
  H           1.43120449517819     -0.92498904965578     -0.61089000884623
  H          -1.01728611323506      1.39982346631582      1.08342862443663
  H           0.52436433859259     -0.26373397460994      2.07857825633044
  H           0.41362402812763      2.26084980158525      0.33262178777282
  Cl          2.55413318009503      0.63808212420516      1.23140526435175
