20
Coordinates from ORCA-job NEB E -40.021603805920
  C           1.13041554839339      0.50555976295596      0.19176989387087
  C           0.55594826091244      1.05116422005322      1.34052600833833
  C           1.16092806518696      1.33468662544425     -1.04275416592909
  H           2.05838986345995     -0.04088611222054      0.34306249141050
  F           1.05730902727787      0.52803067518701      2.50994108174881
  C          -0.26844789841272     -1.07923757513689      0.10938550636337
  C          -1.46289787887290     -0.37149753457204      0.12394283359948
  C          -1.84126138956180      0.35771105390292      1.26045610773107
  O          -0.56257115170117      1.59034390185895      1.40763801830910
  C           0.08578253748642     -1.95583891467116     -1.04897082563787
  H           0.10112693338657     -1.44926410521855      1.06090313712215
  H          -1.95042232188825     -0.15644909840607     -0.81595006032928
  H          -1.66312895195443     -0.07105561830451      2.23875250571897
  H          -2.71275776099808      0.99223906861367      1.19986442222188
  Br         -0.49257161580694      2.19852342165494     -1.54082376286577
  Br          2.49461737016424      2.81484867376210     -0.74867771260857
  Br          1.82534714680916      0.36230720669442     -2.59148569697385
  H          -0.28647988669634     -1.55860155353496     -1.98926692217606
  H          -0.38571044130427     -2.92568176167415     -0.88395169831784
  H           1.15638454411989     -2.12690233638857     -1.12436116159618
