20
Coordinates from ORCA-job NEB_product E -40.066803323470
  C           1.45345275459484     -2.26817637502128     -0.70339955482013
  C           1.60389912142236     -1.63573456205370      0.65577538736157
  C           1.13773728726773     -1.19379160004574     -1.73079957762275
  H           2.43024864437452     -2.69722577700078     -0.96757676476857
  F           2.31123299769659     -2.46446247656237      1.46840798233094
  C           0.46296701995343     -3.47600984593859     -0.54179689247159
  C          -0.96273242178865     -3.15279162763759     -0.88158359313071
  C          -1.91738423695506     -3.03783947203018      0.02300889538443
  O           1.19541645976007     -0.61437938007106      1.07392594292989
  C           0.93755575680934     -4.68769014152020     -1.34729704311013
  H           0.49695774318152     -3.75578087251670      0.51810869833256
  H          -1.19595564643338     -3.07701608616738     -1.93484950796195
  H          -1.71793571509380     -3.12617799964480      1.07873276473890
  H          -2.93660276782005     -2.83629622031042     -0.25495785447446
  Br         -0.44539608924812     -0.13676297253728     -1.36099805146703
  Br          2.66868589071192      0.05350363929893     -1.79427962293961
  Br          0.96135280190647     -1.93274571798972     -3.52013916279583
  H           0.93702000586586     -4.49023999233546     -2.41539487535505
  H           0.26479996862723     -5.52056638460332     -1.15758174197642
  H           1.93908042516719     -4.98421613531236     -1.04320542818405
