20
Coordinates from ORCA-job NEB_reactant E -40.058298645420
  C           1.59749837669895      0.10437447220941      0.00331832578448
  C           0.85544595166369     -0.92067284501288      0.44151718492264
  C           2.08534488728753      0.10081140216572     -1.38286788603140
  H           1.83937110585997      0.92344682457291      0.65753497539457
  F           0.40217157226675     -0.93803564845121      1.70045409913040
  C          -0.12596967255684     -5.24064567724161     -0.85990714706813
  C          -0.51103857730536     -3.97578966035021     -0.89227739593407
  C          -0.27283706801676     -3.00356537420294      0.21726880015335
  O           0.53517389275581     -1.94402405146746     -0.31663800135309
  C          -0.35161597511197     -6.21921263111505     -1.95795056512918
  H           0.37980420180024     -5.62924532246383      0.01536884657696
  H          -1.00541176991463     -3.56426229633424     -1.76043783618847
  H           0.25291506413374     -3.47492571237524      1.05480502707277
  H          -1.21838275056450     -2.57952463243558      0.57888646433827
  Br          3.10705990307359      1.69847190632314     -1.77624019411221
  Br          3.23899487954365     -1.46536716716686     -1.75066131182340
  Br          0.60495396177660     -0.00627479810156     -2.68325072671362
  H          -0.86383054202595     -5.75678935609668     -2.79701300206584
  H          -0.94543986232688     -7.05803087287427     -1.59659385504000
  H           0.60299242096239     -6.61633855958158     -2.30051580191403
