14
Coordinates from ORCA-job NEB_product E -22.833842535500
  C           1.55686632721219     -1.42528551414766      1.66042093103808
  C           1.28599453323246     -0.10526000786378      0.98962509014618
  H           1.13142636010986     -2.23520503598129      1.06525294357297
  H           2.64253156662083     -1.55682691352741      1.69374599387963
  H           1.48128446314797      0.76960063606959      1.64101628049108
  C           1.00083348717598     -1.44389852198721      3.08069566645456
  C          -0.48773003301370     -1.36361004318569      3.10431066656290
  C          -1.16435563600838     -0.49327988166019      3.83089317397391
  O           0.90980732434630      0.03063518607613     -0.13723792037043
  Cl          1.49322714612132     -2.99466449035390      3.87031122424715
  H           1.44662331925707     -0.65030443008550      3.68614655983642
  H          -0.99803915010652     -2.08913399283552      2.48642285315602
  H          -0.67066447984659      0.22983080555404      4.45939343183118
  H          -2.23980522824879     -0.46679779607161      3.82510310518034
