17
Coordinates from ORCA-job NEB_reactant E -25.995710125160
  C           1.78944344700649      0.02434853549720     -0.00995172993573
  C           1.13502131753496     -0.00896613842932      1.14553424995855
  C           2.10654339785831     -1.19531877906278     -0.81328127036961
  H           2.11487210706909      0.97487001900276     -0.39895725373566
  Cl          0.82203152317761      1.47964631984285      1.99831768833474
  C          -0.36835470002485     -3.05169713009508      4.45852765956712
  C          -0.44070017355297     -2.51361287899975      3.25678121141935
  C          -0.01063011932690     -1.11647126809066      2.93523113585313
  O           0.69473886954713     -1.15170323188677      1.70436318586284
  H          -0.71078958270980     -4.05314526563721      4.65216806160492
  H           0.02592795137739     -2.50832590104266      5.30149362620412
  H          -0.83103285415624     -3.06509745427966      2.41360869566734
  H           0.62495080337162     -0.70937316114226      3.73142326807690
  H          -0.89816578813723     -0.47294899424708      2.83634830207357
  H           1.73594555613380     -2.08406470583265     -0.31299767795207
  H           3.18367006676842     -1.28485395881802     -0.94877033354631
  H           1.65072817806319     -1.12348600677890     -1.80013881908321
