17
Coordinates from ORCA-job NEB_product E -26.023688088660
  C           1.65579189020114     -0.96472538555653      1.26357325523218
  C           0.88146137634355      0.29836238852441      1.03615083871198
  C           1.46856645421308     -1.90869675881723      0.07825839352963
  H           2.71388797298204     -0.70241684218502      1.36498890320712
  Cl          1.32123010793736      1.56465232274978      2.20146463783311
  C           1.19724193282135     -1.58944859820744      2.60253378939879
  C          -0.28321707030856     -1.81275484231969      2.64821539691630
  C          -1.10100007366405     -1.15004435184441      3.44326459231271
  O           0.05379866561010      0.52496095470915      0.22235173683032
  H           1.71801563058114     -2.54258242334974      2.72054515811796
  H           1.49224042138374     -0.92985740018758      3.41965715123419
  H          -0.66909124437393     -2.56563635814867      1.97503023617560
  H          -0.74238711051029     -0.39600824009065      4.12498766411678
  H          -2.16198884918463     -1.33073501958717      3.44932835001289
  H           0.41366107757251     -2.09613833908750     -0.09869723820771
  H           1.97116588304286     -2.85305994326181      0.27012160574570
  H           1.88712293535259     -1.46747116333991     -0.82287447116755
