29
Coordinates from ORCA-job P E -34.264983957800
  C          -1.29126916420425      0.31424964027814     -2.45671980813654
  C           0.04129935505998     -1.68599379121331     -1.12732739817878
  C          -1.17247544061493     -2.04571992064942     -1.91934019354405
  C          -1.80252604177079     -1.09458227446585     -2.59055818447584
  C          -1.12726724883416      0.59125471279330     -0.95088839313696
  C          -0.18331796192849     -0.41268605469570     -0.26550090205574
  H          -1.49035696982128     -3.07756912780816     -1.93793530677575
  H          -2.67578330452503     -1.28955053958863     -3.19238357454112
  N          -2.06202843075580      1.35965940226693     -3.11617394552683
  H           0.35583376251755     -2.51117185000364     -0.48596241929005
  H          -0.28963583280374      0.36145785911790     -2.90672084542426
  H           0.85604774469922     -1.47974448528174     -1.82907187832084
  H          -2.10548738334055      0.52022459551829     -0.47698086981467
  H          -0.65977501339705     -0.73331599213684      0.66887764653555
  H          -0.75681062238318      1.60353830963360     -0.79856565441757
  N           1.04882206018466      0.23983730845568      0.15477397290575
  C          -1.91647288880834      1.32245151366112     -4.55569966285224
  C          -3.45663584280474      1.43600613821905     -2.73565918084166
  H          -0.85821378457099      1.35545598849079     -4.81279620631614
  H          -2.40170728349442      2.20130999060492     -4.97988447481183
  H          -2.35886926850671      0.42673255020025     -5.01863156260595
  H          -3.53971864847190      1.52362383652851     -1.65565434246107
  H          -4.05301621042384      0.57247713177142     -3.06650747516707
  H          -3.88439026271510      2.33338970074827     -3.18311135965872
  C           1.91389289966404      0.77263745563925     -0.87756775883122
  H           1.57984383108602     -0.39486115898538      0.74276614764665
  H           1.35327343102021      1.47212175705043     -1.49433832424267
  H           2.36577365903170      0.01439344239356     -1.53478296864613
  H           2.72156086091192      1.31782386145726     -0.38965507701426
