29
Coordinates from ORCA-job TS E -34.180519925830
  C          -0.67662874402039     -0.36851220865691     -0.85787985498893
  C           0.90464597517112     -2.20071169843162      0.65967127951391
  C          -0.41497137231234     -2.42380569872756      0.39029809762923
  C          -1.20313384217668     -1.54438012736939     -0.35819149459370
  C          -0.09266727481721      0.53526488289052      1.09109478310723
  C           0.79372736397181     -0.25361752659913      1.78522386295988
  H          -0.92834722762712     -3.20808683970274      0.93208064727589
  H          -2.27069149662034     -1.70194653345358     -0.34796611189736
  N          -1.39539952138544      0.57217958266583     -1.56422819234315
  H           1.43279624397676     -2.86912900840925      1.32326805387632
  H           0.36966666020690     -0.35944123974455     -1.12113622677602
  H           1.52938667386046     -1.66728734110845     -0.03432888002901
  H          -1.11777700935999      0.55252322742471      1.41156765514191
  H           0.42910229792404     -0.84303399565403      2.61311439994393
  H           0.25563987117241      1.40306955759949      0.56246506382005
  N           2.15776808469600      0.02057950527063      1.89225071198393
  C          -0.69204883933326      1.73479329382869     -2.04623715436661
  C          -2.76649159584805      0.85193246402494     -1.21297699597406
  H          -0.66139106688088      2.54332308151079     -1.30252809334396
  H          -1.19665364006988      2.11468191495136     -2.93692502157088
  H           0.32810315509105      1.46873768098117     -2.31568937610624
  H          -2.84146825049616      1.49314599084686     -0.32456135090197
  H          -3.30283279402541     -0.07252626840410     -1.02252616878636
  H          -3.24740975907142      1.36225294118735     -2.04842837103896
  C           2.83819940355259      0.75411093181701      0.85268068513821
  H           2.69123232671636     -0.77637809034211      2.21189971320466
  H           2.39755638866083      1.74685093225688      0.76347375032724
  H           2.79662974904098      0.26646753763229     -0.13089831269449
  H           3.88345824000328      0.86894305171490      1.13541290148929
