20
Coordinates from ORCA-job NEB E -49.792023676190
  C           1.08406759115651      0.31217560250339     -0.50783733174410
  C           0.40938382920721      1.32464806531253     -1.19316546683358
  C           1.11051781683373     -1.04676019991166     -1.18647843356082
  H           2.03841564047881      0.55716692990455     -0.04997844211223
  Br          0.87688032455374      3.14596688460095     -0.72377362785721
  C          -0.20488318317994      0.12151683101502      0.96687961034391
  C          -1.42543261621553     -0.05209398481661      0.31601141245063
  C          -1.88387019873669      1.00305334356896     -0.53294871772065
  O          -0.76073610276830      1.14835770803622     -1.67020564766582
  C           0.26771895713580     -0.98937274395963      1.87660467070282
  H           0.01808491039407      1.08876089961884      1.41114806068006
  H          -1.78798601566839     -1.05452864845845      0.14238928211063
  H          -1.87808329263403      2.00399367658810     -0.10353214395392
  H          -2.78056098699537      0.80309022894464     -1.10702453471905
  F           1.71562533192309     -0.92384184240830     -2.39419690963163
  F           1.85924737375837     -1.91694483811896     -0.48615889201520
  H           0.11738895056206     -1.48836562047144     -1.35840489295088
  F          -0.01009977643377     -2.20937201552815      1.40810832967608
  F           1.57900494966018     -0.93391056784162      2.12194017856260
  F          -0.34468350303154     -0.89353970857837      3.07062349623837
