20
Coordinates from ORCA-job NEB_product E -49.836947730480
  C           1.52997443843043     -0.54501493496145      2.31049553242889
  C           0.98229256281412      0.42486223219693      1.29219874027267
  C           1.74659032944460     -1.90383385056234      1.62237020491943
  H           2.50815361367728     -0.20076939581470      2.66894852987129
  Br          1.24522432653591      2.27459648626726      1.84697237365011
  C           0.53004331097376     -0.55519226085474      3.49331958465105
  C          -0.88657518794790     -0.82144597719064      3.04963319132029
  C          -1.84059886951856      0.08741890974042      3.11066926739229
  O           0.40993906238824      0.19120883168395      0.29001730913416
  C           0.91896394609754     -1.55928395785114      4.58390524908580
  H           0.57927277171626      0.43030723139520      3.97438143131933
  H          -1.08773796442152     -1.81820307156088      2.68446351618903
  H          -1.66163388218488      1.08273637980601      3.48353493428770
  H          -2.84255830357159     -0.13098071727801      2.78722075742735
  F           2.46383226587506     -1.71276699025756      0.49249422048795
  F           2.49224426941758     -2.71150526454960      2.39869702410837
  H           0.81887399371910     -2.42815006860314      1.35231802619278
  F           0.65809539514962     -2.82626135145577      4.25208202054681
  F           2.21239327170188     -1.48250088919579      4.91024781930250
  F           0.22411064970308     -1.30902134095403      5.70253026741220
