20
Coordinates from ORCA-job NEB_reactant E -49.819098582510
  C           1.68235083479796     -0.11613325840730     -0.09553365657919
  C           1.01389232785210      0.34549040882461      0.96502124300172
  C           2.22693721454707     -1.51112225510568     -0.11526450462915
  H           1.85541591881737      0.50607579735341     -0.95358461965987
  Br          0.33640241154799      2.13273804491058      0.90673046292991
  C          -0.35867764283990     -0.84792044564570      5.38374905899849
  C          -0.14598662002995     -1.03720412265037      4.09263451920325
  C          -0.03742857273837      0.07101793401095      3.09715129260185
  O           0.81509917753699     -0.36998040371514      2.05840894463737
  C          -0.50499487734615     -1.97591974401355      6.35665312950960
  H          -0.45823779527457      0.12780168329339      5.83547261841611
  H          -0.04292439563130     -2.03066317096457      3.67772253286657
  H           0.35899159472198      0.98328618644493      3.56114669442166
  H          -1.03827305905194      0.29144872301446      2.69496597263991
  F           3.17351313682217     -1.69429746126957      0.84284219922651
  F           1.25965037562740     -2.42849682111159      0.14766091862799
  H           2.67932437210708     -1.77078295768685     -1.08345374759555
  F          -0.37817322409994     -3.18412630102583      5.79894379299615
  F           0.40611519112870     -1.90470162452884      7.34146999458535
  F          -1.70809636849472     -1.95451021172732      6.95936315380131
