16
Coordinates from ORCA-job NEB_reactant E -30.483087883870
  C           2.01808295865886     -0.06238988251087      0.08159510984039
  C           1.44738609394407      0.05194124583695      1.28611161402544
  Cl          2.36169614567688     -1.60274580139216     -0.61191678117888
  H           2.29445039406547      0.78298705067433     -0.52072258488434
  N           1.03622855359179      1.28014679419162      1.80624048365725
  C          -0.37581385188482     -2.99823273085864      4.36201448048630
  C          -0.35666725336257     -2.37067486563452      3.20243796501162
  C           0.19431191806944     -0.99281206056328      3.02468614847846
  O           1.20786206584455     -1.05559859218207      2.03260304296346
  F          -0.88927965047772     -4.22838531082570      4.49201339502157
  H          -0.02108692064461     -2.60848641126118      5.30593627362684
  H          -0.72272568342285     -2.85738007891974      2.31140906580349
  H           0.61121779265874     -0.62545696781251      3.97283689501096
  H          -0.60171847035735     -0.31155761022001      2.69752872918874
  H           1.27067145820032      1.41452002582555      2.78113432382053
  H           1.33308444943980      2.06112519565224      1.24059183912816
