16
Coordinates from ORCA-job NEB_product E -30.518531015940
  C           1.85372067034905     -1.16809306004692      2.13972129936157
  C           1.51429484473253      0.32994865310816      2.16073396615619
  Cl          1.62708426360903     -1.91736646679080      0.53675425093409
  H           2.91366276092318     -1.28354992071656      2.39016515862975
  N           1.34254432186686      0.91045616223503      0.96664325671271
  C           1.01869461425406     -1.89400419816917      3.20414140332824
  C          -0.40821082671745     -2.07936555579169      2.77975345713551
  C          -1.34506563712572     -1.17512195041313      2.98810035951300
  O           1.44224196904185      0.91753840598982      3.21580630817794
  F           1.59373180966130     -3.12014660327603      3.46303090256634
  H           1.09224049010848     -1.30978651875690      4.13093016267610
  H          -0.61078028263717     -3.01079019755578      2.27097612854424
  H          -1.13287903904555     -0.25053909169260      3.49907082588605
  H          -2.35607507772953     -1.32381926732491      2.65161502139656
  H           1.12144654578339      1.89160362451371      0.93329450315932
  H           1.37804857292570      0.37233598468779      0.11606299582237
