20
Coordinates from ORCA-job NEB E -25.081724905260
  C           1.29677150085762     -0.82585304711334      0.24598592261989
  C          -0.07504268526947     -0.62416263502271      0.16664736810451
  H           1.72910230304630     -1.01126862003799      1.21728586442234
  H           1.78426867125359     -1.35370768246524     -0.56188159913574
  C          -0.81442806603359     -0.72930977442294     -1.14356654957379
  C           1.86214551305932      1.02689609319678      0.11317153408102
  C           1.18655017719979      1.62640127367138      1.16522267070764
  C          -0.24796583342393      1.57856382202557      1.13331289624384
  O          -0.65227678566672      0.05565757919149      1.14026893509412
  H           2.93879130603677      0.94803582941462      0.17546110525425
  H           1.50491438718553      1.20428624442390     -0.89290780696541
  H           1.65998236444564      1.65269820036718      2.13642066509633
  H          -0.70483173910149      1.94287362102964      0.21237575206572
  H          -0.75560827751180      1.96575469157784      2.01027890516508
  C          -2.12907778783223     -1.48839564562887     -0.96843473914236
  H          -0.18666084012678     -1.22521715295964     -1.88455098211009
  H          -1.03974262147027      0.28268084406131     -1.50255959758867
  H          -1.93413753572101     -2.51796947729093     -0.67747262336049
  H          -2.69803201542609     -1.48941584719241     -1.89536484526745
  H          -2.72472203550117     -1.01854831682568     -0.18969287571075
