22
Coordinates from ORCA-job NEB E -41.189057659370
  C           0.42297845865577     -0.08005977173648      1.13326886804318
  C          -0.91854086486974     -0.52655119582526      1.02811658854510
  N           0.66714106062004      1.16299626207672      1.65893757185066
  H           1.18806928572419     -0.81601979323763      1.35226597710695
  C          -1.20563254645288     -2.01285510553354      0.91769640344000
  C           0.58803167040771      0.05125936290393     -0.89946420930177
  C          -0.39189134930959      0.99754568350548     -1.21069782752202
  C          -1.73713386322336      0.65914252646814     -1.07441455750548
  O          -1.83384817249772      0.29515056759042      0.69318889973538
  C           2.03342033146802      0.42153997905027     -1.10386993106836
  H           0.41544203171096     -0.99081090441828     -1.13619100035628
  H          -0.11373381097682      2.04216181985278     -1.17342128643926
  H          -2.06277892989537     -0.31972619148138     -1.39731647350406
  H          -2.48244658212687      1.43238427336584     -1.17184247674776
  H          -0.06595726167865      1.83554729117900      1.47863182186936
  H           1.59812590141089      1.53229559656398      1.54600652733892
  F          -0.07808896821087     -2.74339763728097      0.63277720154766
  H          -1.93357138682348     -2.20667993758083      0.12116951601811
  H          -1.60096788493047     -2.39556524797589      1.86590255689109
  F           2.30869551932252      1.68490350883558     -0.68302548076653
  F           2.87376499533091     -0.38617234051350     -0.41183980935914
  H           2.32892236634483      0.36291125419161     -2.16587887981575
