22
Coordinates from ORCA-job NEB_reactant E -41.213346621980
  C           1.18661301000273      0.01471661932282      0.17763123456694
  C           1.52581666925052     -0.67857558277629     -0.91481745896069
  N           0.60865032969541      1.26818771151659      0.16139110680688
  H           1.42079114501636     -0.38835295625569      1.15091355982808
  C           2.18575258295141     -2.03032132453694     -0.84807630596455
  C           3.88107963383447      0.08655480852316     -4.36813836650023
  C           3.43371434457462      0.14289091059608     -3.12505841448941
  C           2.12021656953349      0.74497421165865     -2.73120186090253
  O           1.22255244572577     -0.21922296701181     -2.19547068376371
  C           5.19073411307089     -0.53062945423826     -4.75391891823462
  H           3.33747980193420      0.51074938213326     -5.19932971188742
  H           4.01170298514763     -0.28950084938641     -2.31985408792498
  H           1.60827589611147      1.15590244529201     -3.60470703450257
  H           2.29622503370483      1.54489383211812     -1.99835799368692
  H           0.14512142411296      1.48964518130739     -0.70913933674198
  H           0.05834308723722      1.49809215710019      0.97367020336015
  F           1.68906609390401     -2.77055961610433      0.20061833397567
  H           3.27037740402169     -1.97074100723737     -0.68427720207339
  H           1.97898188810447     -2.58708605277360     -1.76757999811093
  F           5.99033612984401      0.38327697583614     -5.36840709775481
  F           5.88554409707289     -0.97971126411526     -3.68253313449736
  H           5.07292531514895     -1.37668316096845     -5.45345683254161
