22
Coordinates from ORCA-job NEB_product E -41.214422767240
  C           2.93733374695759     -0.17773085705040     -1.19416317563644
  C           1.55197486360016     -0.80128817646874     -0.97645642506811
  N           3.05918516892666      1.12351406128567     -0.58055891775230
  H           3.70808556926989     -0.84260181891772     -0.79020059207537
  C           1.55642182938717     -2.32134968147844     -0.93863498258686
  C           3.14223388797115     -0.07428571098655     -2.73825197342196
  C           2.50709762904827      1.16767905281414     -3.29187401357270
  C           1.38520479842194      1.16452867425254     -3.98558821036038
  O           0.56632701461585     -0.13212088633827     -0.83459554020288
  C           4.63498545266677     -0.10905954505028     -3.07138049765150
  H           2.70450007147973     -0.95772354958451     -3.21539818926807
  H           3.02726637974430      2.08505181331197     -3.05898739818961
  H           0.85280726845088      0.25460114955403     -4.21004961131384
  H           0.94602341297833      2.07563176899182     -4.35198648081518
  H           2.21203167511100      1.65843575914982     -0.74837389281063
  H           3.18846391519357      1.04151510862330      0.42036268773852
  F           0.30245245028812     -2.83812385760924     -1.09271656536208
  H           1.92816778083746     -2.64990331883437      0.04051814578136
  H           2.18927901508932     -2.74116099099183     -1.72762212858540
  F           5.34410958661907      0.81382683390721     -2.39564668706619
  F           5.15697531118422     -1.31781450697404     -2.72290327727918
  H           4.82667317215856      0.03497867839388     -4.14669227450121
