18
Coordinates from ORCA-job NEB E -43.328641491300
  C           0.64721906141803      0.29908413800291     -1.08937187622465
  C           0.59923869170360      1.10700856094609      0.07344589937577
  F           1.82698022369885     -0.23840451446022     -1.42158196507792
  H           0.12032107394138      0.64579499576419     -1.97598081948894
  C           1.69145844822491      0.92432024855009      1.12502231620333
  C          -0.45592395089166     -1.12698213491327     -0.58420683619371
  C          -1.62915071677131     -0.50883968578921     -0.10088394478431
  C          -1.52922730044975      0.32561256826570      1.03794470825569
  O          -0.55587447449461      1.53105459867229      0.46259113393709
  C          -0.57747657435337     -1.90237084093072     -1.78117650517983
  H           0.21379078509844     -1.59238305253294      0.13774533353711
  H          -2.43524421709784     -0.33369408941366     -0.79981872495824
  H          -0.95494756208156     -0.03680886770847      1.88530217750493
  H          -2.41594203630084      0.87237839444780      1.33044014716967
  F           1.82507583668193     -0.37036717936903      1.50395949316833
  F           2.89103052981485      1.31952262155885      0.69688585923226
  F           1.41030362924366      1.60793623730080      2.23545171819209
  N          -0.67163144738471     -2.52286199839120     -2.73576811466867
