18
Coordinates from ORCA-job NEB_product E -43.354323964050
  C           1.61581660804181     -2.17423997278757     -0.00310006122637
  C           1.79884084664821     -1.13973983083417      1.08623560784283
  F           2.77184396534696     -2.86862613543613     -0.21575275429333
  H           1.34810721280659     -1.67558214378493     -0.94446981585916
  C           2.98250506749386     -1.42641958001967      2.06002337053260
  C           0.49279539155679     -3.15773962729920      0.43154249433218
  C          -0.76634523303828     -2.42760327298928      0.82306323279663
  C          -1.31961018400690     -2.53001133115655      2.01570074972311
  O           1.07318818706263     -0.20768846668525      1.25929500643999
  C           0.19454207095173     -4.03986558428732     -0.68042404800629
  H           0.86858561686862     -3.76476776272315      1.26424179681352
  H          -1.20400056065838     -1.81422302114588      0.04849924793174
  H          -0.89556284520591     -3.14211610576305      2.79515356718343
  H          -2.22397635317025     -2.00191724924109      2.26002489619486
  F           2.91443037677579     -2.68109375668011      2.52692225954240
  F           4.16715052716299     -1.26895292457881      1.47116401018889
  F           2.93833757103586     -0.61058088119717      3.11022506079725
  N          -0.07324826567213     -4.71813235339069     -1.55794462093427
