18
Coordinates from ORCA-job NEB_reactant E -43.355963359790
  C           1.80071241618052     -0.02522688630754      0.03330100217657
  C           1.47125731127476     -0.75646015525596      1.09759614662333
  F           3.05256405515880      0.21582517507005     -0.33461588939563
  H           1.06391592047912      0.46199658082882     -0.58791419187970
  C           2.50183339465078     -1.43261663369313      1.98595940021469
  C           0.07450532611441     -4.36358930973081      0.78081173239612
  C          -0.31379826797401     -3.09477589381277      0.67748981739514
  C          -0.34197476135468     -2.13507971517012      1.82416623513229
  O           0.16278435486427     -0.84831357944153      1.45476550095365
  C           0.06568698257185     -5.24254509894702     -0.32111568757022
  H           0.41220832532609     -4.78898679035068      1.71674976579237
  H          -0.63401858040420     -2.68932208056784     -0.27329209525176
  H           0.18051466209064     -2.54098182702562      2.69700495938867
  H          -1.37868219971703     -1.92348652940318      2.10724157689660
  F           2.16641930451224     -1.33709566542630      3.28270567738453
  F           2.60989497647998     -2.75244697906901      1.72699337783783
  F           3.72030238528424     -0.91824025142886      1.86403368414077
  N           0.05487439446222     -5.96295436026850     -1.21218101223524
