20
Coordinates from ORCA-job NEB E -29.116878000970
  C           0.40620352455233     -0.29771035407793     -0.71788129202551
  C          -0.70719237232641      0.62131470486179     -0.49572430128544
  C           0.00427667327924     -1.77542733675042     -0.61515524068390
  H           0.83909768067908     -0.12310365218794     -1.70569727825219
  C          -1.17366960580529      1.57560454991807     -1.53628539794951
  C           1.47239583497494      0.05661177453104      0.38550174879454
  C           0.85931037087356      0.19168045255339      1.66978389754831
  C          -0.61971912585240      0.26411343890307      1.81692694592170
  O          -1.32483743897862      0.70542499803222      0.68478188444656
  Cl          2.85372612087828     -1.26253870970107      0.42096594819641
  H           2.06600750605658      0.89222506913830      0.01648489501951
  H           1.37109737066548     -0.19353021191692      2.53586307830979
  H          -0.88311818535316      0.99743188770468      2.58965461358268
  H          -1.03154610911256     -0.69963034895479      2.15229470122178
  H          -0.35557087724702     -2.02369845967607      0.37864067160739
  H           0.86286034558887     -2.40299631472022     -0.83352396772925
  H          -0.78133193167522     -1.98748123418022     -1.33741893767418
  H          -0.36644761576425      2.25703186075381     -1.81354639148996
  H          -2.00976971440666      2.15537282725633     -1.15553898091104
  H          -1.48177245102676      1.04930505851286     -2.44012659664770
