23
Coordinates from ORCA-job NEB E -56.714305964980
  C           0.22345704548895     -0.64435233078791      0.74521916261968
  C          -1.14842786939070     -0.35905221150528      0.85239518155928
  C           1.14451535441366      0.06351932410315      1.72033702289449
  H           0.49231702310666     -1.69070443487437      0.63935633233413
  C          -2.18704316570628     -1.38420207705286      0.47430788641209
  C           0.57084061489188      0.12075086058994     -0.97630818564240
  C           0.14250750744871      1.44095892253472     -0.80735251979696
  C          -1.23237520612426      1.66626037907604     -0.45704898670142
  O          -1.52701093229600      0.89488843702111      0.87585604596362
  C           1.99146272813491     -0.12586714441367     -1.42237387900791
  H          -0.09508836697367     -0.54901935160838     -1.51407675790204
  H           0.86860770274457      2.20849501926721     -0.58740674993721
  H          -1.95890326041863      1.22550580036876     -1.13802506054781
  H          -1.48291959746730      2.69270079033134     -0.21036362402223
  F           2.37087563444837     -0.53664617801153      1.73830688119136
  H           0.73762808536081     -0.03969469698810      2.73312259466364
  H           1.29451889395792      1.12150319552290      1.49215362418240
  Cl         -2.38220089368874     -1.51307651648111     -1.32680899001125
  Cl         -1.75455136993364     -2.99266055143978      1.07055952680103
  Cl         -3.75918455645276     -0.91461535923617      1.14112235137275
  Cl          2.01984999160745      0.16951156125096     -3.19686265488256
  Cl          3.18130797733399      0.95463989256126     -0.68703756413528
  Cl          2.48981665951408     -1.80884333022825     -1.15907163740743
