23
Coordinates from ORCA-job NEB_product E -56.756948755490
  C           2.23801838856728      0.17709059045624     -2.14774513007658
  C           0.89411507283358     -0.45590915646058     -2.45549917582164
  C           2.11200194006512      0.82636219238391     -0.75746780123850
  H           3.03802105905164     -0.56432900236063     -2.10901738168924
  C           0.83010410572859     -1.99715123952551     -2.42575464942584
  C           2.55621227949113      1.24997923749105     -3.21454187176350
  C           3.69796413666751      2.13403604448860     -2.79319632797454
  C           3.58536175174046      3.44046436224992     -2.65296409428110
  O          -0.11643900283132      0.17878537856446     -2.55843551425446
  C           2.88433707792462      0.59852907354542     -4.55993987127748
  H           1.65579698657591      1.85839234070639     -3.36090610787703
  H           4.63275189799511      1.62926318568602     -2.60254486213976
  H           2.65799447790403      3.95834456658327     -2.83637617875001
  H           4.42006020912572      4.04590724230495     -2.34774169033104
  F           3.35002345964558      1.10571704838483     -0.25337614828257
  H           1.63320211469781      0.14212478458883     -0.05059806471012
  H           1.55733490208317      1.76735048648239     -0.80855981223772
  Cl          2.26985927201544     -2.81649710258110     -3.03199678784728
  Cl          0.64946894008633     -2.37000357684061     -0.68463584025514
  Cl         -0.59399424019872     -2.56811169962271     -3.29953003449028
  Cl          3.16126868338702      1.85948143698487     -5.78002085827311
  Cl          4.33384158739012     -0.42188760186212     -4.46632354414020
  Cl          1.52509490005387     -0.41773859164787     -5.10942825286285
