18
Coordinates from ORCA-job NEB E -36.247409164520
  C           1.11740918053533      0.22229172304117     -0.23922509456577
  C           0.84169272596960      1.65063618465237     -0.61764802457443
  N           1.17132016841627     -0.74492324184125     -1.34043927895855
  H           2.08272611859954      0.17904680394673      0.28250222665895
  Br          1.08989073112761      2.08025691824705     -2.50002509576703
  C          -0.00452654947701     -0.27091950198390      0.80774962528312
  C          -1.37128771038524     -0.13729850989532      0.20961431044424
  C          -2.28376022664168      0.71712393900211      0.63205885115001
  O           0.51273038051621      2.50273404327974      0.13616292561327
  N           0.21387944609698     -1.60829335520042      1.24349994262521
  H           0.09828080155146      0.40204029701224      1.66579583030468
  H          -1.59105769536141     -0.80113454785451     -0.61621741272229
  H          -2.10473426409330      1.40555535241310      1.44044344449387
  H          -3.25305771249821      0.76016531926894      0.16675102811195
  O           2.06440167411148     -1.55915115185321     -1.28070168130859
  O           0.28962519858876     -0.71772298445463     -2.15916566470014
  H          -0.00506545314092     -2.30052226489239      0.53856550405022
  H           1.13153318608458     -1.77988502288784      1.63027856386128
