31
Coordinates from ORCA-job R E -33.663797120380
  C          -1.66597010755025     -0.12657243813534     -3.03034309058283
  C          -0.43297962999363     -2.80730835934969     -2.29113603065871
  C          -1.65256528708657     -2.37901763697677     -1.97994454923452
  C          -2.27203117458297     -1.13790780722651     -2.41073877272964
  C          -0.78281328070749      1.52602922149095      0.56181130132123
  C          -0.04859253475041      0.52482084777770      0.11657813388051
  H          -2.27254634504234     -2.99717396949069     -1.34195539670431
  H          -3.32445669882295     -1.04310143017531     -2.17159145263197
  C          -2.33836931912707      1.14107655169899     -3.42509859454229
  H          -0.05502261860715     -3.74487836892028     -1.91975288430988
  H          -0.61226746093891     -0.18060531883004     -3.26601939304884
  H           0.22735612793004     -2.25365033722243     -2.93706168946559
  H          -1.84807228438454      1.54964499549464      0.40131128263377
  H          -0.52370095856152     -0.28735347895383     -0.41814692798674
  H          -0.37100229548436      2.36022223302273      1.10344170765135
  C           1.44352314834243      0.35606783494648      0.24311867669391
  H          -3.39950623392436      1.11485163825572     -3.18893306439580
  H          -2.21746487689921      1.31657994945771     -4.49409836444416
  H          -1.88160671504226      1.98096729046224     -2.90047143477174
  C           2.07271687971501      1.34744011306169      1.22154436587112
  C           1.72057343367525     -1.07753820525371      0.71175865718574
  C           2.05624421645279      0.55364272902900     -1.15032374370858
  H           1.61660684251370      1.25498788320260      2.20437361650861
  H           1.94890866958240      2.36895877630284      0.87088690097684
  H           3.13835264870309      1.14900444786188      1.31680074240818
  H           1.26596595890223     -1.25391263156657      1.68415626145368
  H           2.79121095332986     -1.25307373384968      0.79259681771054
  H           1.30471611832020     -1.78881000238916      0.00088871791859
  H           1.85159656001842      1.55747904256474     -1.51675949120406
  H           1.63553549027012     -0.16181288137968     -1.85304608704576
  H           3.13421077375049      0.41009304508978     -1.11497621474865
