31
Coordinates from ORCA-job TS E -33.643932928220
  C          -1.61503476739422      0.27668934720001     -1.65268640814943
  C          -0.45316733699108     -2.00409017050470     -0.34229069647605
  C          -1.78312065002408     -1.90065053205119     -0.58343250933060
  C          -2.35229264798168     -0.79961874543949     -1.25404330995441
  C          -0.90741483826788      0.88011378483916      0.38257073744209
  C          -0.09732631691258     -0.06423748965878      0.93482653049254
  H          -2.46196884602938     -2.58518260311215     -0.09148029790140
  H          -3.43164978232820     -0.71508245548274     -1.24902254493264
  C          -2.26236292125665      1.48417337310150     -2.25713941330009
  H          -0.08255590742830     -2.80835576710570      0.27110460392986
  H          -0.57285055001896      0.15101156924094     -1.89811778650430
  H           0.26672247521384     -1.52482606422207     -0.97559865704775
  H          -1.93018005204440      0.96758640950981      0.70338998247535
  H          -0.50254175543743     -0.70760657023370      1.70145262798594
  H          -0.49089119627681      1.75033917824794     -0.09171845918157
  C           1.41426922119829      0.08461392649982      0.98098727881478
  H          -2.35962647351967      1.34893826324846     -3.33599576197583
  H          -1.66583185700897      2.37901343741976     -2.09250041338756
  H          -3.25574212159964      1.64447352570255     -1.84414773482479
  C           1.69885533351565      1.14179721015295      2.06543363437782
  C           2.10079309349018     -1.21677832476594      1.40610884332348
  C           2.02686959258899      0.56616584918257     -0.33660413925664
  H           1.28902700455292      0.82408199648840      3.02160565949527
  H           1.24591035966430      2.09410130480697      1.80103870335878
  H           2.77100845887627      1.28781662213257      2.18180413782674
  H           1.62870849477725     -1.62639313851281      2.29636040435660
  H           3.14827114963011     -1.02763049406636      1.63388401270509
  H           2.05930222699538     -1.96195621298926      0.61761117854068
  H           1.59974445763916      1.51527080852757     -0.64837156827247
  H           1.87599966440359     -0.15903860950816     -1.13262512385152
  H           3.09907648797402      0.70526057135207     -0.21240351077799
