20
Coordinates from ORCA-job NEB E -47.793803330400
  C           0.74423433532900     -0.51922617807763      0.99012452879182
  C          -0.63755789000309     -0.62908514268424      1.23218497132151
  Br          1.74235218064863      0.39601815046203      2.36396409804140
  H           1.27203533160692     -1.41809796023756      0.69114172999309
  C          -1.39995934619684     -1.83815608901913      0.68471622647838
  C           0.84513079201108      0.76288094043931     -0.48718308689518
  C          -0.45951904045626      1.24919690313250     -0.67054510442686
  C          -1.09890974967484      1.76712550427742      0.47240143349168
  O          -1.34096880364230      0.41011075038653      1.47611090561403
  C           1.55196437801182      0.10633038275068     -1.63576309687053
  H           1.51582186303168      1.44724798935004      0.02862543419492
  H          -1.07841804443576      0.80039336979100     -1.43870198528127
  H          -2.12187446299462      2.10211994610188      0.37134120183929
  H          -0.50359390772240      2.37589777916587      1.14494490922637
  F          -1.95663130184445     -1.53697580749723     -0.51674284898089
  F          -0.58560228777164     -2.89435868605271      0.48850455241771
  H          -2.21361598723533     -2.13665735895321      1.36262042182432
  Br          1.83842712751021      1.47048688566002     -3.03451722138556
  Br          3.32026173390919     -0.54065610117704     -1.10047195842404
  Br          0.56642307991899     -1.37459527781853     -2.42275511097020
