20
Coordinates from ORCA-job NEB_reactant E -47.834719503390
  C           1.72094846979806      0.00747621882910     -0.13552440338922
  C           1.48482467285379     -0.32916183442715     -1.40376791486398
  Br          3.01022491536287      1.20877487330081      0.55622101976818
  H           1.12988182492504     -0.42744307823021      0.65197695697706
  C           0.36735082130457     -1.32966992354645     -1.67533289216840
  C           3.96298487420517      2.17106406224499     -4.62795557365761
  C           3.48926802324866      1.05986890486731     -4.08782675950032
  C           3.11420750651076      0.94431553808209     -2.64589550179378
  O           2.03454276955003      0.03021484425719     -2.57360011368713
  C           4.39057992809573      2.34400664029628     -6.03235713367954
  H           4.08813083674492      3.06858788186373     -4.03313603638076
  H           3.34685797590871      0.15365071783965     -4.66015421847846
  H           2.83134769438576      1.91940793134978     -2.23483770932706
  H           3.97665623146108      0.55687725436776     -2.08523908114267
  F          -0.57826520042485     -0.77397307660588     -2.46243048723243
  F           0.84902132926839     -2.39940093335967     -2.34278820997188
  H          -0.12026362788772     -1.68971980579583     -0.75753468337060
  Br          3.36368102737503      3.81731170991130     -6.84736887966895
  Br          6.29995548119759      2.85439645918879     -6.06614807673571
  Br          4.17726444611642      0.77731561556640     -7.15240030169672
