20
Coordinates from ORCA-job NEB_product E -47.841009057370
  C           2.91086821743338      0.26640761107695     -2.34906216740373
  C           1.50691730916825     -0.23851899706132     -2.62615690118447
  Br          2.79531899444087      0.85312916859087     -0.47704859926585
  H           3.64203523372853     -0.54610131325477     -2.34916891895569
  C           1.35359591239504     -1.76656956657145     -2.45899327382821
  C           3.39419075446590      1.43093452766052     -3.22731318840265
  C           2.34514341331995      2.49421782522904     -3.41688982444719
  C           2.33512218878126      3.61437716573943     -2.71952822528481
  O           0.55607261105802      0.45686526527540     -2.82778048681517
  C           3.88071779580368      0.90330770174382     -4.57399986204429
  H           4.26351683966090      1.88076979151929     -2.72655778860591
  H           1.57788649426697      2.28665300775960     -4.14892193482836
  H           1.56549290664655      4.35103126191734     -2.86261592069539
  H           3.08341646322691      3.83627353633688     -1.97588184229201
  F           0.33035387578614     -2.21872061183476     -3.19822349451892
  F           2.46478328479402     -2.42757442477331     -2.85821397996901
  H           1.16399371816964     -2.02184319674116     -1.40115679950559
  Br          4.36883129271360      2.40075293217143     -5.72496865428622
  Br          5.47891647770345     -0.21586049653222     -4.35327713329038
  Br          2.51622621643694     -0.16663118825160     -5.48284100437615
