17
Coordinates from ORCA-job NEB E -29.704810132350
  C           0.71306207875981     -0.31777123478476      0.71075731305599
  C          -0.67455540925786     -0.46884965088767      0.46268399059515
  Br          1.15547331918995      1.31346272884092      1.97981088189887
  H           1.16164197425692     -1.13504659074810      1.26773892363408
  C          -1.47111640025484     -1.61222600641339      0.98881126733955
  C           1.47389744145830     -0.01390078257811     -0.63887611728498
  C           0.80928708611203      1.10207775021517     -1.31160014182707
  C          -0.62083709118481      1.36160226623601     -1.03444519995982
  O          -1.33992087742564      0.39194677119397     -0.31768271224270
  F           2.80192051381280      0.26193453037965     -0.39119425859183
  H           1.49177253577564     -0.96502793759434     -1.19544086155756
  H           1.41683263926041      1.98241458961273     -1.45180795800886
  H          -1.19585974532679      1.48943861830789     -1.96028692189613
  H          -0.70200288557608      2.30974708276553     -0.48168756806721
  H          -1.00701459846181     -2.56346309774943      0.72640828366317
  H          -2.47247502860980     -1.57155817542306      0.57050136812449
  H          -1.54010555252824     -1.56478086137301      2.07630971112484
