17
Coordinates from ORCA-job NEB_product E -29.762592648950
  C           3.12137028433144     -1.10011712302888     -1.87681377867250
  C           1.64970650026899     -1.44119575876164     -2.11087372120697
  Br          3.36709917593927     -0.23927812054379     -0.13515551858925
  H           3.68363166937792     -2.03835847292142     -1.80963311126502
  C           0.91208849283028     -1.99894053906312     -0.93346374507032
  C           3.71065481296403     -0.25534627093877     -3.01193521928443
  C           3.39511801561736      1.20462525809361     -2.88028570076032
  C           2.30992038727587      1.75886415005823     -3.38445105482143
  O           1.15325627112317     -1.28669233813535     -3.19549556328895
  F           5.07811728720196     -0.44038584566283     -3.02854280460524
  H           3.33115807264421     -0.66027431525767     -3.96024129906613
  H           4.12299699948283      1.77143630090808     -2.31684531410936
  H           1.58907684927485      1.18586822814941     -3.94421826692984
  H           2.09807182800241      2.80432389681122     -3.24482330534605
  H           1.54908321878847     -2.63276275137143     -0.32182321504735
  H           0.04169669880630     -2.55105289058956     -1.27924754688797
  H           0.56745343607064     -1.17131340774608     -0.31305083504891
