17
Coordinates from ORCA-job NEB_reactant E -29.750297682040
  C           2.10775768683657     -0.23553021264187     -0.27531530133275
  C           1.54988530642289     -0.84938993524582     -1.31734547241545
  Br          3.02454313913805      1.43438131346430     -0.16904784377599
  H           2.06213060102986     -0.69895390008118      0.69453070415178
  C           0.86787723542391     -2.17530466932389     -1.09583730921648
  C           4.10743745621798      0.07382640777327     -4.59307332903853
  C           3.57828265371428      0.29072759512675     -3.40496180587594
  C           2.12033258957456      0.57757239138634     -3.21455935784172
  O           1.43515038977154     -0.51739574391264     -2.62339938472814
  F           5.41053601141568     -0.19412069491434     -4.74929655170843
  H           3.58358237242998      0.09979180542841     -5.53824349974503
  H           4.19954711872179      0.23491975242118     -2.52371521023593
  H           1.63222958248206      0.69806425087426     -4.18541807645902
  H           1.97856881160308      1.49315006994257     -2.63343525392143
  H           1.40724448187288     -2.95157963541123     -1.63551018998388
  H          -0.14062908943065     -2.12811704050598     -1.50052816283801
  H           0.82482365277553     -2.43244175438012     -0.04334395503505
