32
Coordinates from ORCA-job R E -37.370020991760
  C          -1.64450279456717     -0.67240399475020     -2.83422489622537
  C          -0.46979545274044     -3.44984390966823     -2.46065955936941
  C          -1.04599308643601     -2.69349330354485     -1.52731031098392
  C          -1.53951512176714     -1.34673968926194     -1.67730229571806
  C          -1.09982327251466      2.48164456942151     -0.62868974438330
  C          -0.52039648194481      1.53516832953894      0.11504268198348
  H          -1.15268781242042     -3.10343596313136     -0.52919263256718
  H          -1.85234425193196     -0.84634080923734     -0.77066799509783
  N          -2.16174774252851      0.59468773680446     -2.94031917337664
  H          -0.13058664156409     -4.44780458595082     -2.24330458715033
  H          -1.38715969702393     -1.13816228489776     -3.77558056591267
  H          -0.31755050714363     -3.10723328266316     -3.46953193841371
  H          -2.09121543300240      2.81804495700271     -0.38310121920916
  H          -1.10521002792342      1.08664467513671      0.90963299237830
  H          -0.61128432089691      3.00280113506689     -1.43273443245999
  N           0.75476604818725      1.04569192525188      0.06791088863698
  H          -2.13746496043127      1.14873383350332     -2.08992551284128
  H          -1.93163578059058      1.11001049195094     -3.77405691257645
  C           1.68838493104422      1.48115927478111     -0.95400162347251
  C           3.09053228149700      1.68518237833135     -0.37321064882907
  C           1.72737068799724      0.52764875514156     -2.15252524918684
  C           1.00274974719588     -0.23177907648445      0.69376124300937
  H           1.33322779021413      2.45728766249439     -1.29358559480403
  H           3.58384105084740      0.73681529217630     -0.17623058005626
  H           3.03405119722015      2.25362225591349      0.55191493694154
  H           3.70016024758119      2.23816290723928     -1.08316249842440
  H           2.17709400781219     -0.42248269751764     -1.87524728717820
  H           2.31287470691931      0.96447726133255     -2.95736544426846
  H           0.71833651972949      0.33674350791769     -2.50907630264692
  H           0.40053189073968     -0.31491279555179      1.59777678047525
  H           2.05049651271686     -0.30907493019099      0.97747578513652
  H           0.75263576572537     -1.07069962615455      0.03316169659056
