32
Coordinates from ORCA-job TS E -37.346541273700
  C          -2.13708747979579      0.09965772940326     -1.35673130708967
  C          -0.80684082484595     -2.07698431857114     -0.05522464456972
  C          -2.15692569379072     -2.03789985590718     -0.21333988740734
  C          -2.82047237626065     -1.01124758265208     -0.89377945116491
  C          -1.36729025336101      0.85403585266420      0.47414998514437
  C          -0.47505721937379     -0.00426952200589      1.08508760741544
  H          -2.76642199985079     -2.74259912416608      0.33892457584223
  H          -3.89840253045555     -0.95639759824747     -0.82472758220116
  N          -2.83127426304580      1.13171810078565     -1.98417250940741
  H          -0.35717468435079     -2.83801992245106      0.56196056410433
  H          -1.13566226784702     -0.01914051568429     -1.74332679482122
  H          -0.14854417032239     -1.59235590969738     -0.75076094291696
  H          -2.33915610581660      0.94257671257214      0.92713119134269
  H          -0.82125578979512     -0.61001964351399      1.90663703320755
  H          -1.00663722381087      1.75131002459707      0.00005961194279
  N           0.89513323358666      0.07875148557547      1.00679627987740
  H          -3.74798113877265      1.30096819178987     -1.59424872867438
  H          -2.31003443820623      1.98777988456236     -2.10190959309171
  C           1.56353627370011      0.77432636323823     -0.07703501226219
  C           2.28700165287914      2.01562578039747      0.45981102654335
  C           2.53385012743477     -0.11528575443331     -0.85968541633018
  C           1.68008371913234     -0.82836007594214      1.80273987532065
  H           0.78876827094393      1.10515357259483     -0.77279901644129
  H           3.09715027734175      1.73219892054653      1.12707390463082
  H           1.59061142097521      2.64222902911364      1.01142438553363
  H           2.70507899372060      2.59282325034647     -0.36097631192638
  H           3.39339810609153     -0.39536733369621     -0.25604614406095
  H           2.89321553478962      0.42540821687659     -1.73208084642622
  H           2.03451518122287     -1.01905181180139     -1.20072618697422
  H           1.16096910513992     -1.03247650221437      2.73788834722263
  H           2.64013725949782     -0.37138822471389      2.04157573754048
  H           1.86276930324544     -1.78369941936592      1.29631025009752
