22
Coordinates from ORCA-job NEB E -49.652673139920
  C           0.57485363424355     -0.91884995243678      0.08396458241553
  C          -0.14784629527610     -1.11352443785982     -1.11205197021526
  C           0.02591564773529     -1.50234433929013      1.36940044285473
  H           1.64899121388271     -1.07058753230665      0.03819923442134
  N           0.52460121090449     -1.10066724587272     -2.31408691062266
  C           0.32091349516133      1.03993073014533      0.16250838583571
  C          -1.06194335710723      1.22069524902574      0.11579713844542
  C          -1.73425307496280      0.72728689272843     -1.04034597192595
  O          -1.41993527810166     -0.87086907071898     -1.14077512862816
  C           1.06860463168292      1.56324356665040      1.36076737179368
  H           0.89586232441740      1.23046340004423     -0.74086397458483
  H          -1.60759421452188      1.29105713984803      1.04296225996805
  H          -1.33555160272262      1.05081926183173     -1.99938068534417
  H          -2.81590137382407      0.74081993606712     -1.00687581608819
  F           0.91150837355176     -1.32466019059572      2.37771074248705
  F          -1.14007977971158     -0.97043269519584      1.78336421968075
  H          -0.13481963917515     -2.59233242278867      1.27663233656787
  H          -0.04219426007070     -1.23365843701113     -3.13628361040238
  H           1.45538633414394     -1.47842922249983     -2.35257159799174
  F           0.45193914358454      1.38413114622626      2.52546456135003
  F           2.29894244903912      1.03240483614568      1.46892855406945
  F           1.26260041712674      2.89550338786331      1.23753583591374
