22
Coordinates from ORCA-job NEB_reactant E -49.683715876950
  C           2.01999863273121      0.44451616910654      0.38588657140123
  C           1.75202072609254      1.19844609512110     -0.70044544494084
  C           1.28253835394587      0.36394896232670      1.66790860568005
  H           2.86251395535307     -0.22165196188598      0.31345523309734
  N           2.52225216707849      1.09532849953673     -1.83436599152105
  C           1.67689216327177      4.35142690127193      1.81280634571174
  C           1.56120633991863      3.84357096643153      0.59742187715439
  C           0.40464031240765      3.01403208071470      0.13656244869847
  O           0.77586600074801      2.12038683914706     -0.89869068805625
  C           2.83211788626253      5.20537284430177      2.22305060055475
  H           0.95102912978907      4.19052260919740      2.59412138743511
  H           2.32708607616022      4.01605383405475     -0.14816693258125
  H          -0.33755480845427      3.66561590754681     -0.33945158566614
  H          -0.08275187533785      2.50786782474323      0.97192593582920
  F           1.46651994930554      1.44768999528530      2.49251962507073
  F          -0.07293638775337      0.29348546542678      1.50267402935378
  H           1.58119081005348     -0.52020070133129      2.24866182716532
  H           2.11541958531497      1.51679921793623     -2.65428371629670
  H           3.01148750642044      0.23025211981464     -1.98745880067964
  F           3.77235702990618      5.32693205841768      1.27433305136383
  F           2.44243316623780      6.45995791781066      2.52772034727281
  F           3.45157328054802      4.73534635502572      3.31701527395312
