23
Coordinates from ORCA-job P E -30.712937279330
  C          -1.16340499834929      0.50592314624518     -2.30687332049556
  C          -0.58016721316836     -1.80734819387692     -0.52423316336170
  C          -1.34741786979355     -1.91805411983990     -1.80427163240938
  C          -1.61662034445816     -0.89501617963882     -2.59478125129067
  C          -0.85912638824565      0.66049128450990     -0.80936969597160
  C           0.09991324129784     -0.44553482149486     -0.36263222327494
  H          -1.69377650896382     -2.91108794015250     -2.05495426973255
  H          -2.18197726569009     -1.03037006066353     -3.50532505501771
  C          -2.22399935675263      1.52572774628135     -2.68656578888241
  H          -1.26635553767347     -1.96978401656221      0.31316430216745
  H          -0.24267340854225      0.70380382405676     -2.86625481517868
  H           0.17150387707101     -2.60048406161832     -0.48146531578223
  H          -1.78731164065549      0.58157595662965     -0.24130768787349
  H           0.32666197293343     -0.29444150123697      0.71183732463936
  H          -0.41606235315580      1.63961053739214     -0.61327853107471
  N           1.30009422668609     -0.38935542799186     -1.18550350918748
  O          -3.40462925517480      1.30155404891992     -2.60535801848607
  C          -1.67728836371539      2.85065804023563     -3.15834211766398
  H          -0.88992579989856      3.19679250756773     -2.49362438568660
  H          -2.47132885704121      3.59075041216501     -3.21331930573586
  H          -1.24777713383481      2.71716460076871     -4.14997743174715
  H           1.78836876492176      0.48746899288955     -1.03754153036955
  H           1.93314021220321     -1.14379477458563     -0.94589257758447
