23
Coordinates from ORCA-job TS E -30.616236606060
  C          -0.59759220303802      0.13837213869702     -0.83049863668814
  C           0.75255012210084     -2.15614489758816      0.18925547397341
  C          -0.56666643862107     -2.19054473732832     -0.13970151259898
  C          -1.23284248714877     -1.07419622216194     -0.66296939293789
  C          -0.04594867235333      0.58542499694910      1.24306936576247
  C           0.78675037294324     -0.37800923774642      1.74987426214584
  H          -1.16880575186242     -3.02963977397305      0.18183633989392
  H          -2.31197044619392     -1.08448417328140     -0.71666476892052
  C          -1.39492231937329      1.31868328396108     -1.20821728618941
  H           1.20383232783675     -2.98361403901501      0.71393313544188
  H           0.44901329679905      0.17443364575934     -1.09200397762706
  H           1.43767674158997     -1.50131055293112     -0.31793789594369
  H          -1.07831535835228      0.60017763243229      1.53625797750976
  H           0.40395059633557     -1.15269888093983      2.39406283587584
  H           0.37791104310121      1.52936155015701      0.94350647106802
  N           2.15686659700923     -0.18782055146070      1.83264792817041
  O          -2.58899291847722      1.39676468697680     -1.01818775811614
  C          -0.60764196931088      2.43860347777763     -1.85388235661590
  H           0.21381530978557      2.74105075749649     -1.20803256636542
  H          -1.25471571020788      3.29018956980057     -2.04489291477692
  H          -0.18817084669314      2.08634585515453     -2.79476158114059
  H           2.53910376060362      0.45848953702627      1.15790120734266
  H           2.71511495352716     -1.01943406576218      1.94540565073645
