16
Coordinates from ORCA-job NEB E -29.075484927570
  C           1.18564101620028      0.24683584677668     -0.58708544084847
  C           0.23449171006193      1.27283244603463     -0.71205668716994
  N           1.18559691070261     -0.78018277447862     -1.49445341100334
  H           2.17159640302711      0.49931629008797     -0.21300447722862
  I           0.73634274248990      3.10532639219302      0.35496882518495
  C           0.27014654304935     -0.48058401382231      1.14229723159327
  C          -1.02292655302902     -0.73468785740528      0.70736069664065
  C          -1.85514042911110      0.33956162828099      0.38692996434594
  O          -0.96142399644741      1.07847662759862     -0.99949169254565
  Br          1.40004381042251     -1.96879942428315      1.54929175155629
  H           0.48850551390857      0.35942098710120      1.78725112841931
  H          -1.24256881201719     -1.70745707691921      0.28804816719032
  H          -1.82774808395542      1.22765521313064      1.00512853955075
  H          -2.81293880685770      0.13748213333294     -0.06614387769588
  H           1.76990530240336     -1.57317406756480     -1.27587001729287
  H           0.28047672915220     -1.02202235006330     -1.87317070069671
