16
Coordinates from ORCA-job NEB_product E -29.109967390900
  C           1.72635180228449     -0.87589349883582      1.69170293259219
  C           1.09883378273974      0.33314688008419      1.01860719622372
  N           1.54531026211683     -2.07386147076147      0.92612594218963
  H           2.80090006260361     -0.69531619246912      1.81911399655686
  I           1.73333918720947      2.23074202145274      1.87161728395456
  C           1.08751292068969     -1.00979924339917      3.08979972457029
  C          -0.39458486171289     -1.15627788833405      3.04329534800999
  C          -1.22151343663090     -0.26222089519370      3.55334495285929
  O           0.33415816520041      0.32205540508258      0.11953684031712
  Br          1.87905116726568     -2.59032189713796      3.95429613874399
  H           1.37666548781454     -0.16260067340108      3.71511228917310
  H          -0.76404930804686     -2.05662849802102      2.57246418345330
  H          -0.86689426712340      0.63111528268734      4.04204749242466
  H          -2.28861487341711     -0.38696811519837      3.49962378983060
  H           2.09808246385143     -2.07500233645109      0.07885138607816
  H           0.57395144515528     -2.22796888010400      0.68246050302253
