26
Coordinates from ORCA-job NEB E -56.772954715690
  C           0.65162618202718      0.06113440815113      0.75964440677928
  C          -0.71943758341601     -0.04325566833868      1.09104925132895
  C           1.38954366939189      1.29334621021675      1.23216718205797
  H           1.26430109164983     -0.81325521692590      0.96576771008475
  C          -1.32551222751860     -1.36613159497240      1.47983132306559
  C           0.50867767358580      0.24734270267212     -1.13919276524199
  C          -0.30699576167462      1.37302532833307     -1.30851052930448
  C          -1.61800257872640      1.32021976678482     -0.73200174784312
  O          -1.51466214480021      0.94816989933469      0.80110446450321
  C           1.88242200973193      0.27670054392161     -1.76910687784498
  H           0.07059857844273     -0.73107911960537     -1.31541343469412
  H           0.15854964886900      2.33611705764316     -1.44775336887899
  H          -2.25218544732130      0.50843603518888     -1.08361085140270
  H          -2.14899702632362      2.26535112305249     -0.71332308279342
  F           2.66947940448049      1.30796492830148      0.84262752117553
  F           0.85897590491316      2.46244898922966      0.87828797420668
  F           1.42453963980930      1.29230504938994      2.58226541227541
  C          -1.20847649214282     -2.44458929388032      0.39776770379831
  H          -2.37815133251793     -1.19011087065695      1.70495333311543
  H          -0.83523730988333     -1.72198606843143      2.38818296348981
  H          -1.72310079200822     -2.14315999831796     -0.51169947977834
  H          -1.66916570164960     -3.36160158740146      0.75524380686482
  H          -0.16838471169737     -2.65811073094764      0.16466357427843
  F           1.79600062134814     -0.11255452662910     -3.05751280385141
  F           2.73315018416781     -0.58233470816421     -1.18676552724810
  F           2.46044450126274      1.47560734205164     -1.77866615814251
