23
Coordinates from ORCA-job R E -36.679332326140
  C          -1.41290848367412     -0.32230179535224     -2.68114473669550
  C           0.36628345953944     -2.71790426728166     -3.09005727253498
  C          -0.94495152051996     -2.73735944917527     -2.88264098118125
  C          -1.72911122663901     -1.59347279467892     -2.44756693864877
  C           0.58812120283583      2.40643857090193     -0.42203235380085
  C           0.21759228625129      1.29750995305988      0.19891325745949
  H          -1.49771705591118     -3.65966310784401     -3.00537408874419
  H          -2.63204742157328     -1.82169906626860     -1.89534268577705
  C          -2.23591954736210      0.82652680116601     -2.19056570438507
  H           0.89866865294380     -3.59945715745970     -3.40551004935648
  H          -0.55442553120638     -0.03570657093588     -3.26679919901147
  H           0.95480766131246     -1.83032885622599     -2.93274482925984
  H           0.41190570063487      3.36604126166838      0.02436880406716
  H          -0.28532326242300      1.32767792009827      1.16036389268485
  H           1.09051040843983      2.37476298222572     -1.37183577157045
  O           0.42534932898862      0.06226040647790     -0.32592283019701
  F          -3.06390630031218      1.29655048108337     -3.16916873687777
  F          -3.04996445714133      0.47054162189529     -1.16285651382928
  H          -1.62029729992175      1.67386576778218     -1.84817372308508
  C          -0.04366832088414     -1.01555091612379      0.45145977199443
  H           0.44888915387645     -1.04184929495051      1.42932387299902
  H           0.20241142091873     -1.92078345891299     -0.10246028034438
  H          -1.12746884817288     -0.95656903114938      0.59438709609449
