19
Coordinates from ORCA-job NEB_reactant E -38.054269110600
  C           1.83872957793883     -0.00390699361315      0.03756083125544
  C           1.24395030217878      0.21690204919619      1.20816151557990
  N           2.02628830170467     -1.25829987818432     -0.52676425312959
  H           2.13915967523083      0.83441757357655     -0.57061763342348
  H           1.04043260737283      1.21275068569548      1.57001075758350
  C          -0.32170861486484     -1.78683750485155      5.24418165308300
  C          -0.22948298187604     -1.69304643464816      3.92778279494992
  C           0.18408525802577     -0.45861709109687      3.19768835121857
  O           0.85222695671430     -0.83669993531073      2.02379151193537
  C          -0.77457818565969     -3.02881902514032      5.94103940424618
  H          -0.09135710984360     -0.97407604581857      5.91636043596901
  H          -0.46133239358576     -2.53607818721628      3.29137257055195
  H           0.82268233928214      0.17595344107404      3.83053381313632
  H          -0.72488876652123      0.11759124265787      2.94961119277436
  H           2.87431963209750     -1.36091627360325     -1.06349123000158
  H           1.88816525878043     -2.00546149100992      0.13889031266110
  F          -1.04044234365417     -4.04530081204103      5.11177770234437
  F           0.14467470454155     -3.47767036422737      6.81540352917314
  F          -1.89482421786232     -2.81978495543861      6.65970674009251
