20
Coordinates from ORCA-job NEB E -31.689108138030
  C           0.03776159889872     -0.03455783842062      0.96228954934291
  C          -0.90808075951597     -1.04362428865220      0.99612012191250
  C          -0.40131233708129      1.38138006572703      0.66209828804459
  H           0.83765773716924     -0.08724087171779      1.69187755634434
  I          -0.34735309393618     -2.81846990677958      2.14696456387815
  C           0.92486987357781     -0.60343994130595     -0.84421177181866
  C           0.16269865037319     -1.63244264274938     -1.36411394878917
  C          -1.22006510346959     -1.40705330188509     -1.50067336826803
  O          -1.80052315268976     -1.21929783666232      0.13141952240368
  I           2.97143585252001     -0.94641537388658     -0.41888274971041
  H           0.76993718677440      0.39455408531983     -1.21945368157583
  H           0.49772818236816     -2.65341105246718     -1.23595754391185
  H          -1.83746037122290     -2.22833957460407     -1.83666295431552
  H          -1.54457441275025     -0.43884606207694     -1.86265628942332
  C           0.76091272681452      2.36705169408102      0.62277466174794
  H          -1.07319685672835      1.68026523040861      1.47361504008263
  H          -0.98428879672500      1.42466325452243     -0.26059341793694
  H           1.31385211507402      2.33512683509619      1.55867528193255
  H           0.38375279270566      3.37711418199548      0.48287077968808
  H           1.45624816784357      2.15298334405713     -0.18549963962764
