20
Coordinates from ORCA-job NEB_product E -31.745387245510
  C           2.39202270486569     -0.37534119522709     -1.02673320147537
  C           1.15827461480780     -0.99599875447774     -0.43542733570280
  C           2.25107399938247      1.12151051273222     -0.67447278869679
  H           3.28365933216532     -0.77764933658299     -0.53937586443654
  I           1.47324074183583     -1.70749844510977      1.60072900602756
  C           2.41317980451782     -0.68790298368387     -2.52761807703904
  C           1.97893186779319     -2.08205249917522     -2.81870523508270
  C           1.08502412146675     -2.39474597746480     -3.73870948074854
  O           0.07992842779883     -1.07103641740902     -0.90786985961813
  I           4.44602498402552     -0.49899732305272     -3.33060456510556
  H           1.81333488857910      0.02988437165777     -3.08715973375820
  H           2.46300861751572     -2.85176371812389     -2.23015657591763
  H           0.79736812297343     -3.41460296282211     -3.92284239183453
  H           0.59907632273541     -1.64221029787480     -4.33761237890662
  C           3.48041430627039      1.96483444631464     -0.98550263756207
  H           2.05097377391865      1.18988557280490      0.39910425920073
  H           1.38042123546051      1.52462999913295     -1.19844140695869
  H           4.37767863914440      1.51267667655431     -0.56992879055275
  H           3.35776611599497      2.94949979538042     -0.54075652567384
  H           3.61779737874820      2.09687853642681     -2.05441641615848
