20
Coordinates from ORCA-job NEB E -28.514003801580
  C           0.99427042285740      1.26682657746218     -0.12373822596380
  C           0.53378299918451      0.23457081125801      0.56390052159398
  C           0.21247869545013      1.94853715979598     -1.20186222639490
  H           1.96415188003310      1.67372525900505      0.11667681633861
  Br          1.65894057253398     -0.57168153205757      1.94832862509665
  C           0.28880416042166     -3.70910931137841      1.56471821793885
  C           0.02393649070702     -2.49642910578099      1.20460634520448
  C          -0.75153238550448     -1.70078217362831      0.30575247071669
  O          -0.68441742307889     -0.29780973812212      0.48925329200507
  H          -0.17934900977201     -4.57959316069587      1.11684410415579
  H           1.00460653915867     -3.91644620032277      2.34296641735387
  H          -2.17669659551646     -1.97931284755217     -1.48834264197490
  H          -1.83952321406314     -1.92797216752796      0.37601093525887
  H          -0.48383717015812     -1.93057023673012     -0.75735651962830
  C          -0.10515759212267      3.39117163287282     -0.80994784691602
  H          -0.71299579496671      1.40247605187269     -1.38749946512346
  H           0.80841531962919      1.94863148539015     -2.11856014323110
  H          -0.71475571761658      3.41260042212344      0.09004676861834
  H          -0.65153659201713      3.88374967392450     -1.61009883841818
  H           0.81041441484056      3.94741740009147     -0.62169860663056
