20
Coordinates from ORCA-job NEB_product E -28.718904204440
  C           2.40712857347436     -1.12883881986020      0.03815853626478
  C           1.01574063991229     -1.23625863597670      0.56726707145048
  C           2.44034731368959     -0.08146702262355     -1.08300621781866
  H           3.06166551937042     -0.80580991171856      0.85618096688378
  Br          0.95292329197125     -2.22699095509759      2.28127030519163
  C           2.86678201814320     -2.53955919609347     -0.39923117976738
  C           1.91936025377284     -3.17241863088901     -1.37237005066416
  C           1.16677130175235     -4.21785576637605     -1.08673941794142
  O          -0.00059573076236     -0.83685332972150      0.12481780125849
  H           3.85706435172525     -2.44806044947566     -0.84819033726770
  H           2.95427724496285     -3.17203722979353      0.48633823488608
  H           1.87133385886342     -2.71860031985518     -2.35299134901420
  H           1.19636690603973     -4.69185127225719     -0.11880127701550
  H           0.49135784245588     -4.64716212034456     -1.80640188706377
  C           3.85615809042368      0.24045463127351     -1.54383474996763
  H           1.97218399071368      0.83205368155793     -0.70825165949974
  H           1.84160675169389     -0.42770069900714     -1.92586165316370
  H           4.47574311946702      0.54153974394864     -0.70163460710906
  H           3.83266263927303      1.05840876765782     -2.25928922651348
  H           4.32112202305762     -0.61449246534804     -2.02782930312886
