20
Coordinates from ORCA-job NEB_product E -42.159407392760
  C           1.55058358597487     -1.08821991573862     -1.83037780140277
  C           1.05503777499644     -1.92594328078096     -0.63281046921408
  C           1.22884195241197      0.38481321946379     -1.62632643966341
  H           2.64211315782966     -1.16664458696495     -1.89750733263936
  N           1.56581808885134     -1.55137855037248      0.55485868565140
  C           0.98320326039671     -1.63096018558469     -3.16337630072007
  C          -0.39082614717035     -1.09500880671161     -3.46793618776192
  C          -1.50452916361781     -1.70262215738799     -3.10743147052019
  O           0.30598298609485     -2.86201493649635     -0.75949937017212
  O           1.92850252397026     -1.29084072172140     -4.15680232424952
  H           0.92675413447336     -2.72548761626867     -3.05213733163437
  H          -0.40485960056808     -0.16020168989838     -4.01304982269618
  H          -1.48359009990151     -2.62495395687922     -2.55225963694328
  H          -2.47117292325797     -1.28695843978424     -3.33248035793224
  F           1.37787603223358      1.12713515864414     -2.72276002942470
  F          -0.01718761452551      0.59894322241523     -1.17974516411603
  F           2.04368630939533      0.94102628853152     -0.69856830783202
  H           1.25234474435807     -2.04533820189288      1.37494351362788
  H           2.16395228333516     -0.75402030358810      0.67948790620981
  H           1.53806871471962     -1.44302453898415     -5.02352175856682
