20
Coordinates from ORCA-job P E -29.831729030750
  C          -1.50979802652749      0.55835203101891     -1.93378246549079
  C          -0.58714424304276     -1.43692618060119     -0.28807292019536
  C          -2.05169964596283     -1.37875163003047     -0.58201961401164
  C          -2.49812118363016     -0.42671795553801     -1.38639339818030
  C          -0.65164516319203      1.09802698471894     -0.77568807359337
  C          -0.05824017821824     -0.03273989219274      0.09447366983309
  H          -2.70059921296321     -2.11534787838933     -0.13608138108120
  H          -3.53962564477301     -0.31823285357673     -1.64429692157956
  C          -2.20568441681425      1.69742468443896     -2.66942069984741
  H          -0.36638487309373     -2.14175150178799      0.51370297454296
  H          -0.84495557106333      0.05091097617517     -2.64524280441592
  H          -0.05591829792949     -1.77424910597023     -1.18469821430306
  H          -1.28176203388745      1.73604254745152     -0.15238808176830
  H          -0.30850200008042      0.15388405424526      1.14482976920742
  H           0.14758221214777      1.71956469093184     -1.18441607441759
  C           1.38151516320687     -0.03846144924405     -0.00952736124976
  F          -1.28399372534201      2.53391480396926     -3.24907049721002
  H          -2.80283056993688      2.31151625448979     -1.98631796596640
  H          -2.83697031385558      1.31668913558991     -3.47927979762350
  N           2.52098772495824     -0.05426771569882     -0.09970014264930
