20
Coordinates from ORCA-job TS E -29.729120578110
  C          -0.50609197894387      0.42686114372870     -0.99227792325985
  C           0.85083532696519     -1.90925133140728      0.04322315542053
  C          -0.48305913307152     -1.86346320488060     -0.16032843885891
  C          -1.15059818289652     -0.73921088083395     -0.70418316440729
  C           0.09010448451062      1.00099875495246      1.04899845788892
  C           0.85609219793950      0.01914467003109      1.60529859887155
  H          -1.10549453693052     -2.65096192956926      0.24340435336135
  H          -2.23259712793272     -0.74860199905127     -0.69397516453354
  C          -1.25724575180555      1.61634758563021     -1.50768100799203
  H           1.29992136009623     -2.72912968895166      0.57842925979788
  H           0.54316679908892      0.42615913508008     -1.24555533087681
  H           1.53749097995140     -1.26938662941132     -0.47991466632795
  H          -0.93229227511262      1.11638825103528      1.36774136924048
  H           0.43878582867313     -0.70650334420681      2.28791398832721
  H           0.56075348696350      1.86828339234734      0.61696100839632
  C           2.25768102879404      0.03471725987737      1.50432056443730
  F          -0.48734724127889      2.75130127218810     -1.44125849664373
  H          -2.16894351410771      1.81543500652809     -0.93393995288038
  H          -1.51447236677042      1.48275017825298     -2.56731635271872
  N           3.40331061586778      0.05812235866043      1.43013974275766
