26
Coordinates from ORCA-job NEB_product E -44.134094805280
  C           2.61420998720611     -0.37869780497566     -1.73678534425248
  C           1.52206383623491     -1.36731476175110     -1.32103640663003
  C           2.48994928546170      0.87440927491331     -0.86003268196317
  H           3.59244144571309     -0.82710722977782     -1.53806377254912
  C           1.91998425122587     -2.33435981762462     -0.23651892558485
  C           2.49857709930638     -0.04734770052703     -3.24416844816237
  C           1.57317876659533      1.10053657873642     -3.54380765506976
  C           0.35530294696883      0.94976756772074     -4.02635834024973
  O           0.43832392911422     -1.37304480739089     -1.84519687872242
  C           3.87750884959749      0.24432608435159     -3.83592453382542
  H           2.12622346410372     -0.94470321828517     -3.75001248931316
  H           1.97578345422957      2.08442084456022     -3.34433455500142
  H          -0.06049275296058     -0.02491913306295     -4.21571827154029
  H          -0.28180864657994      1.79428642880938     -4.22367376047132
  F           2.76893336196359      0.56379325405098      0.44692284920972
  H           1.47189851207307      1.27550586144636     -0.88408771059811
  H           3.21379671522043      1.63854378834897     -1.15700420425524
  C           2.70700776501117     -3.49487246292432     -0.85456886363081
  H           1.01612693996926     -2.72283892614365      0.23478949644221
  H           2.53092656565488     -1.82917146614076      0.51118785764420
  H           2.10088351973182     -4.00718261460692     -1.59822114086841
  H           2.97847203134890     -4.20692763538047     -0.07979377080766
  H           3.61836255453595     -3.14456825535120     -1.33365168602377
  F           4.48782189724230      1.28032603310157     -3.20921583347008
  F           4.70497811021056     -0.82001002954763     -3.68278282149377
  H           3.83524611082135      0.48385014745066     -4.90934210881272
