26
Coordinates from ORCA-job NEB_reactant E -44.114594998110
  C           1.96220812596386     -0.10245170268131     -0.32688230300955
  C           1.39844108208139     -1.17077729222225     -0.88364354349932
  C           2.04606353873061      1.32260865801229     -0.78522931938531
  H           2.43600241545297     -0.25108984033103      0.63157460807861
  C           1.43399801011051     -2.51462689389575     -0.19953600553246
  C           2.83883848660174      0.60068504915240     -4.37142831479794
  C           2.31064809233365     -0.37435891472003     -3.65100318396004
  C           0.90925546151847     -0.37085782455872     -3.11698821376351
  O           0.72371138885659     -1.29229845702099     -2.07061461335044
  C           4.23316380172803      0.56581095541227     -4.91911058072538
  H           2.30038671434878      1.50715055960237     -4.60757063854779
  H           2.88505867918940     -1.26329975830074     -3.42740817207368
  H           0.23106909404467     -0.72733263767619     -3.90287277318742
  H           0.59609041335808      0.64092106071361     -2.83611490109622
  F           2.75173925530970      2.05179038240283      0.14272504054933
  H           1.05955874737971      1.80077075859437     -0.84859076573461
  H           2.58273655952661      1.44193204546472     -1.73444351713048
  C           2.54106775534954     -3.38944178974251     -0.78884446177678
  H           0.47014875986878     -3.00123769355785     -0.35596012141980
  H           1.59329633186648     -2.38369798651707      0.86964259415734
  H           2.36993409567565     -3.54952968993984     -1.85056171753994
  H           2.55978936410039     -4.35693689752493     -0.29372579812112
  H           3.51024803165091     -2.91340287531622     -0.65853911404319
  F           4.94751072331012      1.63272408164912     -4.47038370459270
  F           4.91183472141452     -0.53690718965863     -4.52883672784914
  H           4.25900035022884      0.60235389266010     -6.02235375164844
