15
Coordinates from ORCA-job NEB E -26.378377664690
  C           1.02808468974835      0.36318308399087     -0.65328178592150
  C           0.68239140873326      1.26583858674010      0.37283783538169
  O           0.33329813251505      0.37973042849671     -1.85234409722671
  H           2.09438316848104      0.14410918133490     -0.76372074541616
  H           1.39620550524779      1.38785025023811      1.19430535945601
  C           0.27531514206321     -1.18542105757619      0.06242302276761
  C          -1.07778853758135     -0.84017109990456      0.17347726346665
  C          -1.39696385575781      0.19726761886711      1.08775844767965
  O          -0.56664670206471      1.51820246708775      0.59385941984726
  Br          0.73624862353234     -2.55620336075618     -1.18933629717690
  H           0.86483071660675     -1.31271139278120      0.96402724725008
  H          -1.70996457947395     -0.98494805324443     -0.68947405762206
  H          -1.00300845409815      0.09518067507153      2.09615453676496
  H          -2.42068443744542      0.54963759906821      1.07403446046151
  H           0.76429917949359      0.97845507336726     -2.47072060971208
