15
Coordinates from ORCA-job NEB_product E -26.423301028460
  C           1.65595886168566     -1.87597490285082      0.30953688934378
  C           1.36841606782285     -0.52351042459794      0.92711951553016
  O           1.09086016602266     -1.97031710525566     -0.95806065636737
  H           2.74859308384645     -1.99793460717186      0.23073478773669
  H           1.83302421770142     -0.34705218548895      1.91084481856845
  C           1.11115892036709     -2.95274547047698      1.27431475975174
  C          -0.37426990958416     -2.93827886310138      1.34636803932628
  C          -1.04801705033505     -2.81413869223586      2.47473780370819
  O           0.66991241329366      0.28560038283787      0.38469910945803
  Br          1.70666931136226     -4.72477946233988      0.63155828291868
  H           1.56939817411454     -2.83900299555536      2.25902798632316
  H          -0.87667549930181     -3.04887097351412      0.39534859761770
  H          -0.55338281352131     -2.71908915275512      3.42801852667260
  H          -2.12342132040929     -2.80430294331836      2.48960512875261
  H           0.55037537693504     -1.17540260417558     -1.10005358934070
