20
Coordinates from ORCA-job NEB_reactant E -53.500135529520
  C           1.81849344509749     -0.32343109880432     -0.57037121792643
  C           2.87073915290632     -0.32565255625770     -1.39338765862167
  C           0.71933940227377      0.67162719884876     -0.74696127384322
  H           1.71512207546209     -1.02135176246120      0.23977673862815
  Br          4.20262186240812     -1.66526301544757     -1.14691608575036
  C           2.27933685593012     -1.22850842702202     -4.35946596651945
  C           3.51885334824780     -0.76594252916196     -4.30460156481784
  C           3.93921182186941      0.36089049390619     -3.40925789252268
  O           3.04795479274135      0.58794678885159     -2.33160758586640
  C           1.82224602060002     -2.37341039009834     -5.18701745328048
  H           1.48473008229450     -0.78851757173320     -3.77079686418496
  H           4.30746992571588     -1.19219055393567     -4.90596638520540
  H           3.94214579701836      1.30454643529719     -3.96401962476283
  H           4.95335855544887      0.17843241761332     -3.03100305526384
  F          -0.29424138241043      0.43722982575043      0.09196332418792
  F           1.10943165310385      1.94019266439060     -0.53583617650327
  F           0.20235022486827      0.64756633167875     -1.99177283826989
  Cl          0.46016750755046     -1.85411409964611     -6.21841887895938
  Cl          3.08153356304819     -3.05578170776861     -6.22253356487744
  Cl          1.23663529582557     -3.66466844400016     -4.08940597564051
