20
Coordinates from ORCA-job NEB_product E -53.511814391790
  C           1.86891044479781     -1.15986555068206     -2.10188514064971
  C           0.44369201537455     -1.68033965720033     -2.03050121276030
  C           1.90942427457784      0.08833002944421     -1.20508929901322
  H           2.57979995971008     -1.88040908498797     -1.68647127404976
  Br          0.28160049394844     -3.28168015429664     -0.94548725157617
  C           2.24578950936597     -0.79053813670708     -3.55536931031597
  C           3.45508527024880      0.10633200886516     -3.61277359555276
  C           3.42179312524447      1.32664469250621     -4.11159831941638
  O          -0.51405335135623     -1.17061071425399     -2.49437997499199
  C           2.51411659338533     -2.06022963739574     -4.37298924432018
  H           1.39174576450120     -0.27542220729093     -4.01176872563507
  H           4.36730827167139     -0.31592677521348     -3.21833191090307
  H           2.51643478624056      1.76105108716887     -4.50162534759575
  H           4.30285068691326      1.94247576172132     -4.14009303167209
  F           3.16003074778200      0.46262028834636     -0.92281545438446
  F           1.29722710810150      1.13729694636173     -1.75413213151987
  F           1.31281671871072     -0.14050494886103     -0.02912351021902
  Cl          2.90773374818629     -1.60353232331837     -6.04368441959363
  Cl          3.87502442233064     -2.99090789235995     -3.70246620557004
  Cl          1.08076941026536     -3.12088373184631     -4.40161464026058
