23
Coordinates from ORCA-job NEB_product E -61.513761479370
  C           1.04546628897031     -1.70881937460239      0.63513000107317
  C           2.15166818807588     -2.76102727801998      0.61433171770993
  C           1.44843841924840     -0.23310867794022      0.68767347873458
  H           0.56326406355097     -1.83115807690813     -0.34613446007100
  C           3.48840587008996     -2.59309418084659      1.41420751734939
  C          -0.05853935613176     -2.09978951756186      1.66474213406940
  C          -0.93144009022911     -3.18228260780394      1.08056986338813
  C          -2.23436123616865     -3.05237817449213      0.92701133832901
  O           2.02717628462797     -3.75859346709787     -0.02965735937562
  C           0.47529557978756     -2.57760914130710      3.02215600449385
  H          -0.66824037802213     -1.21346421174552      1.86407948050071
  H          -0.41782638053046     -4.09413079008278      0.81132718452628
  H          -2.75494092981207     -2.15064920785333      1.20436903673528
  H          -2.83343201054680     -3.84869500686150      0.52272739835286
  Cl          2.59468918431765      0.11453395711118     -0.63930316067013
  Cl         -0.01181291674694      0.75741082726710      0.38724787286551
  Cl          2.14482930424751      0.29658782035338      2.22793242564187
  F           3.33499762720521     -2.25876681510167      2.69809302672519
  F           4.15665985314808     -3.73995551302928      1.38273970227109
  F           4.27748298847133     -1.66157386288377      0.86406170529220
  F          -0.57020304121920     -2.83333759257228      3.83883767317123
  F           1.15311159934796     -3.74371180208316      2.89070149587477
  H           1.12941108831831     -1.85898730593813      3.53535592301232
