23
Coordinates from ORCA-job NEB_reactant E -61.519610533970
  C           1.36518795050403     -0.57013841373391     -0.18954773058118
  C           1.98471433598880     -1.54374507340687      0.48876763464768
  C           1.95703651321377      0.46663826394967     -1.07451688596231
  H           0.28869457201140     -0.51662770328096     -0.13342654552084
  C           3.49054061450967     -1.79365532413147      0.53250705685469
  C          -1.18744673673878     -3.48622254042965      3.37219954455994
  C          -0.36962133314459     -3.58280006814103      2.33874609531071
  C          -0.01682091560217     -2.43896834700752      1.44181452078728
  O           1.39453787156826     -2.45353675419399      1.27614187017572
  C          -1.55914347921427     -4.64623131016273      4.24659424534720
  H          -1.67613961779346     -2.56257695146407      3.64642279324179
  H           0.10404757028982     -4.52146041855827      2.08921645840092
  H          -0.33839867914198     -1.48307926063008      1.87211555461383
  H          -0.50198026152032     -2.57836090306161      0.46501183220391
  Cl          2.38965614272075     -0.23402106394422     -2.66856118475383
  Cl          0.73704348679490      1.73198744407114     -1.36260069011360
  Cl          3.39285469287579      1.25560720242015     -0.38154529939484
  F           4.09162500167593     -1.02374763935911      1.44927113098840
  F           3.74893482347067     -3.05912389918272      0.86723147083764
  F           4.10268875001974     -1.57768489028644     -0.63188825029385
  F          -2.91061197454736     -4.74975400835165      4.34216086958090
  F          -1.12004350007217     -5.82399060277923      3.75209624371241
  H          -1.16805582786844     -4.54500773833543      5.27428926535743
