17
Coordinates from ORCA-job NEB_product E -33.716685715890
  C           1.74072056631490     -0.56404611019846     -1.63807923036142
  C           1.05882590764424     -1.27762927908728     -0.51670480125145
  C           1.34393830550771      0.91819259911494     -1.57857606115529
  H           2.82888917891094     -0.64921336930270     -1.53409353090010
  I           1.87143290658035     -3.25091363209476     -0.12976459395190
  C           1.37923531791199     -1.23036696954661     -2.99606186627125
  C          -0.01642187812668     -0.91117180308605     -3.44348498403645
  C          -1.07703975567575     -1.59375214422536     -3.05724786151724
  O           0.16207006495325     -0.88419659261177      0.14405370007886
  F           2.28208621246650     -0.79942728354396     -3.93409421374221
  H           1.53104948844825     -2.31629550948531     -2.91425791224864
  H          -0.08923291409045     -0.06893538238099     -4.11629295801885
  H          -1.00467880918819     -2.44245344847955     -2.39608711362781
  H          -2.06629990440413     -1.33220505619828     -3.38803522789488
  F           2.04091518660089      1.63813535280490     -2.50228105449335
  H           1.58472456539079      1.33622779753194     -0.59495740755288
  H           0.27758556075538      1.05105083078931     -1.78693488305515
