17
Coordinates from ORCA-job NEB_reactant E -33.699899318580
  C           1.74472004435960     -0.03484859268196     -0.02880245801320
  C           0.84837831271305     -0.85294450250627     -0.56213880141480
  C           2.25711324791978      1.17378991120465     -0.74551903189068
  H           2.14849464966048     -0.21584892547412      0.95338714282092
  I           0.19707127526980     -2.54832913444504      0.57795634308190
  C          -0.04749888180770     -1.28740931182335     -5.07346680022256
  C          -0.57325696643019     -1.15063147923591     -3.87140178176444
  C           0.06540606479573     -1.69341791948740     -2.63793953216869
  O           0.22963625431985     -0.61520917995273     -1.72096944079230
  F          -0.65103045277052     -0.80303034090170     -6.16321719931663
  H           0.87393781502543     -1.79959460858109     -5.31307041787026
  H          -1.49863023691000     -0.61226895509786     -3.73448684049656
  H           1.03728349916849     -2.14878947139837     -2.86516446477008
  H          -0.58643213653591     -2.45577012727613     -2.18515779369081
  F           3.62552679672430      1.24124348317372     -0.64005852381636
  H           1.86651622726605      2.09384947146362     -0.29294243382207
  H           2.00976448723178      1.14750968301994     -1.81100796585339
