14
Coordinates from ORCA-job NEB_product E -30.180008745760
  C           2.28320509599110      1.53034495837693     -0.98276766588683
  C           1.24695912433239      1.39274484138539     -2.06487511077151
  Br          1.45919417494344      0.63793817034128      0.57849481560957
  H           3.18484406400109      0.95946285181930     -1.21568550362489
  F           1.39119473896434      0.22083860323160     -2.72124882355298
  C           2.57657229922827      2.97819548963136     -0.64229958820882
  C           3.47270796333292      3.13764723365829      0.53471369438081
  C           3.19461264883958      3.93365242179951      1.55081012839084
  O           0.37453437386665      2.13463683240112     -2.33819104495430
  Br          3.46661138681232      3.74429259893431     -2.25347869953644
  H           1.64806964763990      3.54286043970583     -0.52908876930087
  H           4.38898496432258      2.56385293582450      0.50288522742534
  H           2.28861898560254      4.51589106391380      1.58722177438471
  H           3.86129053212289      4.02664155897678      2.38930956564539
