27
Coordinates from ORCA-job P E -41.557456521460
  C          -1.70562781325178      0.27160029295737     -2.65277598344594
  C          -0.37304196959403     -1.71966102542279     -1.32655322395018
  C          -1.86309062576527     -1.78850926707597     -1.40373125276301
  C          -2.51785595035762     -0.81971046223877     -2.02082450656922
  C          -0.62591093602945      0.78195910906763     -1.68005875019091
  C           0.03639505523410     -0.32402901290878     -0.82522027619127
  H          -2.37589253074729     -2.61265617668228     -0.93527230322441
  H          -3.59341635957963     -0.79806798756535     -2.09912308949390
  C          -2.58479626496235      1.40258403949076     -3.14709407862566
  H           0.00138032709704     -2.48932415832119     -0.65504389769344
  H          -1.19420658354149     -0.14495282357714     -3.53422335698633
  H           0.06200338097198     -1.87742927906856     -2.31775185148758
  H          -1.07252408532626      1.52502101359264     -1.01598283934699
  H          -0.33791288651818     -0.24059852981816      0.21368246441692
  H           0.16196761080580      1.26579296709749     -2.25984902882327
  N           1.48264330220732     -0.10726860878079     -0.85945751973936
  Br         -3.65547525096126      2.16980705237391     -1.70559091057327
  Br         -1.53203820478971      2.84311018544445     -3.94565644364453
  Br         -3.81947580304233      0.75870955164901     -4.52737749668234
  C           2.27647782321992     -1.24117973465911     -0.42638745950523
  C           1.84233797045859      1.06455983167828     -0.08081545627146
  H           2.01740759891046     -1.58640632020441      0.58632390821111
  H           3.32320794744202     -0.94165310553101     -0.42609941634516
  H           2.16754431933908     -2.06616527498332     -1.12598109814833
  H           1.63459928880048      0.93222601228137      0.99263983443719
  H           1.29530804044466      1.93595568060879     -0.43090681809156
  H           2.90606259953519      1.25775603059591     -0.20760914927187
