27
Coordinates from ORCA-job P E -35.073877792410
  C          -0.86509195729949      0.37671775494175     -2.93955373495427
  C          -0.07550367035719     -1.69758009382640     -0.93644050574106
  C          -0.87129300921962     -2.00590056914668     -2.16426491835316
  C          -1.23499414684825     -1.08029444641667     -3.03540043167668
  C          -0.03965114365009      0.69071860441875     -1.67694345811419
  C          -0.31906398696655     -0.25124255868263     -0.50628434812591
  H          -1.14087260095475     -3.04166484819065     -2.31969546415053
  H          -1.81575276896409     -1.35116710030022     -3.90666261455977
  N          -1.99750166068457      1.29817911809415     -3.06662345980909
  H          -0.35037278225748     -2.37848165460197     -0.12860299677097
  H          -0.22754981849374      0.60315047396578     -3.80607017039814
  H           0.98964700415698     -1.84846866486068     -1.14382638390387
  H          -0.23802412188142      1.72488245713764     -1.39173002523905
  H          -1.36310014637660     -0.16456313342290     -0.19326719469428
  H           1.02094589423612      0.61149784993654     -1.92554814532140
  C           0.55787975829639      0.12528567636512      0.68325947180222
  C          -2.51652915862473      1.38471958575575     -4.41517302905007
  C          -3.06092901032859      1.07036027233053     -2.11082027698149
  H          -1.69737402216469      1.57243935567336     -5.10802462583161
  H          -3.20738932666251      2.22658361131621     -4.46555533605001
  H          -3.05455241679609      0.48257361928921     -4.74261046138940
  H          -2.68118810895993      1.21175457185816     -1.10201041483940
  H          -3.50564237979254      0.06694005862514     -2.18741465529216
  H          -3.84384622091243      1.80853756333330     -2.28169143398794
  F           0.23447326016221     -0.63576648957367      1.78241568637832
  H           0.41154974141210      1.17078367639643      0.97459230344124
  H           1.61791679993155     -0.05798469041536      0.47705662361267
