27
Coordinates from ORCA-job R E -34.991759529570
  C          -1.36514470124845     -0.45603855584603     -3.04957312315144
  C           0.34174829041230     -2.85433024485355     -2.34572229275631
  C          -0.88091570186437     -2.58177251436842     -1.88796969309942
  C          -1.72478476720656     -1.46221215560502     -2.23117011635187
  C          -0.58668358934462      2.13609584030304     -0.46058961430334
  C          -0.56985941839093      0.92137852151618      0.05313743659530
  H          -1.31471294235255     -3.26248573619171     -1.16506422366455
  H          -2.70213784585991     -1.46389399709461     -1.77316109487625
  N          -2.14136594955058      0.58524808909774     -3.46998721332353
  H           0.88377967565453     -3.72021043237126     -2.00783802983225
  H          -0.37629763020515     -0.45544673658124     -3.48609765601208
  H           0.84427539494907     -2.23825165077925     -3.07222600860636
  H          -1.48543303987101      2.72833038863438     -0.49094772379465
  H          -1.45890802447327      0.47566434164318      0.47643387720267
  H           0.29939489716353      2.58876568528896     -0.87538872144871
  C           0.64364836293105      0.05263369622124      0.11003960359334
  C          -1.50778740005470      1.76303547409024     -4.00483899565740
  C          -3.44675774683800      0.78809795029018     -2.89509247581901
  H          -1.30310800254121      2.50825825138202     -3.22611254373829
  H          -2.15671247570692      2.21763520074316     -4.75633146438555
  H          -0.56680385940749      1.49245950593375     -4.47952773966493
  H          -3.39312584857624      1.10743620019472     -1.84710150771138
  H          -4.01793269782588     -0.13778469267186     -2.95000871985973
  H          -3.97206412249519      1.55155464643567     -3.46713369327040
  F           0.75930261729513     -0.52760904453358      1.35490946179133
  H           1.56437450472712      0.61824838702130     -0.06401804097481
  H           0.56239202068030     -0.77485641789922     -0.60726968688042
