21
Coordinates from ORCA-job NEB E -32.727815365360
  C           0.83429301359381     -0.78382546366720      0.47616558653761
  C          -0.47847150001656     -0.28748721876368      0.32175974137849
  O           1.39208467556877     -0.84915719516855      1.70860855451284
  H           1.18719795453403     -1.59090163416874     -0.15677590763597
  C          -1.25940024478487     -0.58363674300862     -0.93357316430780
  C           1.69908474237863      0.80938866907921     -0.31904145831083
  C           1.30381397150744      1.82908872224302      0.54811703271286
  C          -0.05677132522240      2.16895912900299      0.58619487178499
  O          -0.81553312477008      0.68104362232916      1.10358073993942
  Br          3.54955594166232      0.32522575083425     -0.34923226061965
  H           1.28312258137459      0.75762070461909     -1.31798151155518
  H           1.91723557027318      2.02570424095579      1.41626987667735
  H          -0.58575443267014      2.26956789519665     -0.35331807028773
  H          -0.38590686085548      2.85797007678750      1.35007416268655
  H           0.90092258962652     -0.24818116994212      2.29213910068506
  C          -1.84110128965304     -1.99729334478615     -0.89394607961411
  H          -0.61399052042576     -0.48713537428181     -1.81222006016318
  H          -2.07054773570135      0.14204326401896     -1.01478361804897
  H          -1.04769372686928     -2.73621797175746     -0.81494068418391
  H          -2.41031450079408     -2.19390870602972     -1.79905849119885
  H          -2.50182577875627     -2.10886725349257     -0.03803836098899
