21
Coordinates from ORCA-job NEB_reactant E -32.757400354910
  C           2.34118970631045      0.44317379741873     -1.06359828138236
  C           1.50768993589620      1.04033247214379     -1.91390803049741
  O           2.94826302153924      1.02978379811491      0.03277503440794
  H           2.55770683081210     -0.60469355794228     -1.21761725477713
  C           0.85084944689494      0.26053911389368     -3.02312091580924
  C           3.72012051574899      3.27309507265072     -2.25750899058046
  C           3.03430835130147      3.60001957726971     -1.17927051445048
  C           1.59238730069459      3.23964844047499     -0.97355017165500
  O           1.07454926282172      2.34283902725719     -1.92446461537270
  Br          5.54786914426801      3.71286528970763     -2.47336137043220
  H           3.31472823083830      2.72909325655714     -3.09456620594776
  H           3.48983800175896      4.14651135964477     -0.36683228943558
  H           0.97737088325238      4.14269937572661     -1.07238667700425
  H           1.46994166619605      2.84708492885379      0.04263578831633
  H           3.70355541930770      0.49663197928646      0.29686379922183
  C          -0.54750580060102     -0.20254436435785     -2.61427556183815
  H           1.46539954770255     -0.60105933738882     -3.28417821603543
  H           0.76981827230953      0.91225547925436     -3.89425169999300
  H          -0.49028799066774     -0.86440809677903     -1.75346409101998
  H          -1.02389376414670     -0.73524259677324     -3.43363610839748
  H          -1.16129798223771      0.65497498498673     -2.35228362731750
