21
Coordinates from ORCA-job NEB_product E -32.769899666900
  C           2.39062555420920      1.07996180328973     -1.33402311591725
  C           1.06664379142246      0.54122938376050     -1.90150191878117
  O           2.45699046507873      0.77768841725495      0.03335637007900
  H           3.26114189486783      0.62242791165775     -1.81391290461431
  C           1.12164657254055     -0.14153328186593     -3.23479076360087
  C           2.43701731019478      2.61530947399328     -1.50486912758400
  C           3.60424978215110      3.20447190937085     -0.79488771132498
  C           3.49538576032028      4.15140869993681      0.11816647793520
  O           0.07070530102162      0.66631449799133     -1.23127212940750
  Br          2.57053504799177      3.07159503159011     -3.41664987522814
  H           1.49706173212507      3.05518814722465     -1.16095853025674
  H           4.56713350318745      2.80195783226406     -1.07744882663559
  H           2.54022959734662      4.56058789920424      0.40523032335987
  H           4.35874789534061      4.55252694281905      0.61890564109812
  H           1.55751327082193      0.85022322747930      0.39002311089450
  C          -0.26158415524496     -0.50567327293774     -3.75652422767961
  H           1.73113223888366     -1.04096204747117     -3.10049829172007
  H           1.64945603257212      0.49758439165800     -3.94601694636048
  H          -0.78321045823616     -1.13273337755519     -3.03800572583640
  H          -0.18037269103326     -1.03957447828431     -4.69907562664975
  H          -0.85144844556140      0.39360088861974     -3.91364620176984
