21
Coordinates from ORCA-job NEB E -41.624997739850
  C           0.92572111510766     -0.02878777922402     -0.63942433510593
  C          -0.26043828599813      0.72555038885489     -0.25065379083469
  C           0.65331438832295     -1.04542795039209     -1.76976593195068
  H           1.68374575362086      0.65679705887300     -1.02547800425527
  O          -0.24307074653940      2.06037213230776     -0.40740972502129
  C           1.42736118909140     -0.73142489106565      0.68362417452045
  C           0.32448169311256     -1.29533210829906      1.40412982578896
  C          -1.09263211714951     -1.03024408717523      1.03960200588046
  O          -1.32397497739787      0.17300870380988      0.32615814672036
  Cl          2.75350202286710     -2.04762095562356      0.30305509609840
  H           2.05944041697665     -0.01126638857439      1.20109705611995
  H           0.47188549090862     -2.24369219851471      1.89268455629476
  H          -1.69905635815841     -0.90827878093009      1.94443320895676
  H          -1.52554623298581     -1.86896842584012      0.47567837693247
  F           1.79070150959621     -1.35402872948839     -2.42107649582031
  F           0.11748545248933     -2.20399862154294     -1.33818839428709
  H          -0.04048479595547     -0.62389211010281     -2.51809133562009
  C          -1.30915028419858      2.79607877160532      0.16945788192672
  H          -1.05001370192106      3.84345812785758      0.03522551353671
  H          -1.41180129078126      2.56370507877403      1.23157516635192
  H          -2.25147024100784      2.57399276469060     -0.33663299623257
