26
Coordinates from ORCA-job NEB E -51.979872149120
  C           0.40028368343746      0.39093496862371      0.64940216783178
  C          -0.93061818040752     -0.08150724533648      0.66350895684668
  C           0.71658277419466      1.72465567740185      1.29872663049192
  H           1.14728505559007     -0.32565719780887      0.97467290150255
  C          -1.23200118016298     -1.54999222404078      0.81232718388700
  C           0.71066741179505      0.73702662553319     -1.21226607453307
  C          -0.52615444505707      0.67586347095823     -1.88152443689732
  C          -1.59450522953304      1.38846330905521     -1.24966501462091
  O          -1.87324264308215      0.63022510675195      0.12133657891311
  C           1.79194185416006     -0.19967223139488     -1.68868258287307
  H           1.10848412518455      1.73697936724682     -1.06383532644744
  H          -0.78431193336731     -0.25242342369110     -2.37499473523305
  H          -2.56401257115004      1.31646891212928     -1.73102024379726
  H          -1.36918648717121      2.40653085383930     -0.94533792002718
  F           2.00951433515741      2.07749413083556      1.09475536174495
  F          -0.01742515449398      2.76555032750617      0.84812350820799
  H           0.56633914330057      1.66917137737990      2.39071773416778
  C          -0.38420030033110     -2.28266863539261      1.84326687136737
  H          -1.10255543095909     -2.01688257723114     -0.17119924402627
  H          -2.29076026601321     -1.63206169033386      1.06687299088578
  H           0.64586940324491     -2.38102476973593      1.51210258233946
  H          -0.77961454609374     -3.28338777796488      1.99511873498896
  H          -0.39928800677079     -1.75981013410169      2.79649169465808
  Cl          1.26638542977369     -1.89272861367079     -1.64267891185002
  Cl          2.20342776623641      0.20348611190537     -3.38151758443582
  Cl          3.28109539251837     -0.06503371846353     -0.72470182309200
