26
Coordinates from ORCA-job NEB_product E -52.031449143500
  C           2.68286408302776     -0.78539607546195     -1.90127127596126
  C           1.39874996584054     -1.63121429510444     -1.95446079991305
  C           2.37223106744681      0.43529090199446     -1.02348129922215
  H           3.45670817199508     -1.34525694355531     -1.36695051732452
  C           1.33887648680976     -2.70461218083964     -0.89233534325066
  C           3.27793562959047     -0.31991907418473     -3.25080703236963
  C           2.29230614955098      0.37768673084882     -4.15033220344228
  C           2.46273412229614      1.61856790562338     -4.56300088711942
  O           0.50432516129683     -1.42706822906886     -2.72559738627282
  C           3.93254715497369     -1.48086956796529     -4.00450460739571
  H           4.08999378604294      0.38068282283971     -3.01477133960461
  H           1.42553063646772     -0.19569628105449     -4.43782775675670
  H           1.74443427232948      2.09915004111291     -5.20285277477696
  H           3.31714746809823      2.20822393973113     -4.27208209974644
  F           3.49240069629682      1.17474078519984     -0.83054629634868
  F           1.46591541592403      1.26130096385602     -1.57786871085644
  H           1.99463079197250      0.14762639589872     -0.02841627340943
  C           2.14615217028616     -3.93709844282862     -1.30940937360860
  H           0.29461421702870     -2.99011548215146     -0.75798075555419
  H           1.72962471404095     -2.31714769783062      0.05037152788937
  H           1.74943566366015     -4.35143747621020     -2.23187099124064
  H           2.07949263520114     -4.69507362022144     -0.53340342824160
  H           3.19389136426646     -3.69171824150048     -1.46173186509976
  Cl          2.76744299195999     -2.73021562301601     -4.47150798478517
  Cl          4.70703326824302     -0.85849659997224     -5.48215022170923
  Cl          5.20818191535366     -2.25063465613919     -3.01981030387942
