16
Coordinates from ORCA-job NEB E -31.332492767410
  C           0.70070672344223      0.61613501864321      0.48131505696181
  C           0.40182397393497      0.75143875607726      1.84148609616894
  C           1.18454302806111      1.71167473097678     -0.30897911422231
  H           0.19476179007422      2.13353033549847      0.22993741531997
  Cl          0.09726123111425      2.60562088710147      2.18519595797394
  C           0.47418888437606     -0.70878379011608     -0.21762584946557
  C          -0.87141830510333     -0.69340220954512     -0.90196897479233
  C          -1.93342333471067     -1.33276215868747     -0.45131995383694
  O           0.28008414129855      0.00157537066710      2.74972829246917
  O           1.52822979936168     -0.92129822132617     -1.12406412152180
  H           0.47708373874240     -1.47201820880464      0.57915708686480
  H          -0.90087446144236     -0.10294861768975     -1.80847698579281
  H          -1.89947514166693     -1.91949336598474      0.45192201361398
  H          -2.88072114480449     -1.28733415186893     -0.96010156076208
  N           1.80876863425844      2.32080145212256     -1.09191972080815
  H           1.33846044306387     -1.70273582706395     -1.65428563817061
