16
Coordinates from ORCA-job NEB_reactant E -31.426662856460
  C           2.11287940354680     -0.63779182358673      0.06930887245290
  C           1.64794743785081     -1.52941075679574      0.95999295410939
  C           1.87268200094175     -0.62852143125791     -1.30984664188566
  H           2.74460084671305      0.16430522038478      0.42096197735370
  Cl          2.07970316823891     -1.35735478411277      2.62187606837623
  C           2.63708755914615     -3.98821491625608     -0.93175277036894
  C           1.49714878881630     -3.47417230869948     -1.37398323167781
  C           0.40584001717293     -2.96687678496181     -0.47843226146241
  O           0.85749032259370     -2.58861331208953      0.81761919188610
  O           3.64866880656763     -4.43787665235076     -1.69873445488671
  H           2.86578490416171     -4.09088940223245      0.11978707942086
  H           1.30279419975722     -3.38298546739538     -2.43258501479328
  H          -0.33150009376101     -3.75179361512576     -0.27550535145469
  H          -0.10588449855433     -2.12323317003735     -0.95573864913907
  N           1.72137562776768     -0.54868617262435     -2.44622942468593
  H           3.43558150904071     -4.31668462285868     -2.63353834324466
