16
Coordinates from ORCA-job NEB_product E -31.422665067140
  C           2.05493397829204     -1.56331941702506     -0.19905994292273
  C           3.06399488024539     -1.50478333564769      0.92894188582822
  C           2.36726301321422     -0.62447183618015     -1.25564099571036
  H           1.07828873044459     -1.29286090000245      0.22350339579131
  Cl          3.63867841277564      0.13217839697812      1.21680692656879
  C           1.98431632638359     -3.00314597001503     -0.77460530448745
  C           0.84189626048119     -3.11458402002050     -1.74787358775549
  C          -0.25179968974259     -3.81474056206233     -1.51586987146613
  O           3.42858034725776     -2.40818516681620      1.59825728821586
  O           3.23156434216415     -3.23826867121732     -1.38842862923521
  H           1.83340031849784     -3.69253466345839      0.07159944675140
  H           0.98927270597200     -2.57826140786529     -2.67523918041656
  H          -0.39602235645752     -4.35352713934430     -0.59303468380637
  H          -1.04957873675805     -3.87495095283384     -2.23528741969525
  N           2.58802115047789      0.08982519566258     -2.11746415519037
  H           3.24159031675184     -4.12456955015214     -1.76430517246966
