18
Coordinates from ORCA-job NEB_product E -38.139559864940
  C           1.99720872433544      2.07338518205635     -0.29811658977800
  C           0.78708248324934      2.28492217901976     -1.16356336238346
  H           1.79526339053887      1.23125758960145      0.36622696522443
  H           2.88348589665312      1.86701452613767     -0.89470219131427
  C           0.99673831506446      1.94556216051941     -2.65484587897203
  C           2.23557429268240      3.33481482207332      0.55555707729219
  C           3.32467256317879      3.08151788624326      1.56086253541413
  C           3.12957245027987      3.03969919816089      2.86479113406801
  O          -0.26986517003363      2.68256753253370     -0.77413476162938
  O           2.59362454094930      4.35889421710022     -0.35188116888252
  H           1.29615057666171      3.59102586811910      1.06923646313144
  H           4.30893219087862      2.94987635555312      1.13266010488586
  H           2.15098253665562      3.17662959553341      3.29541285237671
  H           3.93517377834459      2.85946280580971      3.55539605526123
  Cl          2.23540602040659      3.03010845506237     -3.31457002519609
  Cl          1.55227660205847      0.26079068841678     -2.77805337633798
  Cl         -0.50451874161451      2.13181193621260     -3.56331611635258
  H           2.79533954971094      5.16105900184690      0.14114028319231
