35
Coordinates from ORCA-job R E -43.303179520080
  C          -1.57428509247196     -0.51360683460993     -2.39472372223626
  C           0.31942413236272     -2.73171902768627     -3.23770280562986
  C          -0.46488616228066     -2.73775526200868     -2.16130685144498
  C          -1.32955981507118     -1.65880509553307     -1.73863323444436
  C           0.14558111096051      3.45554691203916     -1.43114402464532
  C          -0.09158351065558      2.50675748110814     -0.52287890666368
  H          -0.46895692464949     -3.61001254300219     -1.51964021964920
  H          -1.83895662239567     -1.79654186314636     -0.79218143129952
  C          -2.47027694362207      0.50504704304952     -1.82913610230454
  H           0.94188435635171     -3.57456851528825     -3.48428717691899
  H          -1.13117027484792     -0.29628221196459     -3.35428558780397
  H           0.37241235159129     -1.89036902930427     -3.90707462665611
  H          -0.56529646243178      4.24919066388363     -1.57103981937167
  H          -1.02965883976543      2.52962053920213      0.01624844072102
  H           1.04035497514790      3.51406045986178     -2.02427687987000
  N           0.71203055486239      1.46926392489475     -0.14617714861422
  O          -2.95818074469003      0.40528258083136     -0.72129039269678
  C          -2.70669159376647      1.69639652659649     -2.71804359464639
  H          -1.78958784654933      2.28816860561808     -2.73932213940037
  H          -3.51067874418512      2.31023001915707     -2.32137045642768
  H          -2.94134519397852      1.38142876375306     -3.73188534584513
  C           2.02698191001359      1.29841718542184     -0.72889623738058
  C           3.01130514295459      0.68730648280558      0.26805025578495
  C           1.97210836542865      0.46957158372587     -2.01811757177501
  C           0.17175886385606      0.40384253323464      0.65905443992909
  H           2.38736329083903      2.30290687132123     -0.97606100906416
  H           2.76841193605678     -0.35055946793655      0.47964190806157
  H           3.00425334589297      1.24862693977552      1.19902630121583
  H           4.01533836543327      0.72390097916790     -0.14733128554850
  H           1.62613081454104     -0.54061274329115     -1.81153799895860
  H           2.95845841770816      0.41220855380666     -2.47144749172019
  H           1.28778971259177      0.93255005959760     -2.72438321698079
  H          -0.90791878136978      0.51197623251872      0.74023825352596
  H           0.59826758234700      0.41045911017163      1.66774010402630
  H           0.37630832379157     -0.56790745777103      0.20202557473216
