21
Coordinates from ORCA-job NEB_reactant E -29.625532855730
  C           1.56760257932570      0.29264569017671      0.00366000119286
  C           1.10463663340831     -0.86199899342720     -0.50168573357424
  C           2.06763488643594      1.42770110254166     -0.82372918612681
  H           1.59270864814360      0.40874975297516      1.07713141203604
  C           0.66523382910556     -1.87040009984309      0.39441835980226
  C          -0.38002088301407     -2.85745632964975     -4.51828527127169
  C           0.59019658119185     -2.38914746281241     -3.75814865918051
  C           0.53829511552860     -2.34190557001478     -2.26332961128840
  O           1.04447665645874     -1.08440747504726     -1.84706188442888
  H          -0.29331910810147     -2.89123590616218     -5.59025055269822
  H          -1.29687924852416     -3.23808987136527     -4.09898986621683
  H           1.50521232862828     -2.00302790140378     -4.18435607972915
  H           1.16152236246021     -3.15061762788506     -1.84705742685356
  H          -0.48930140685633     -2.48435575254860     -1.90243295036521
  C           3.47135600691261      1.85150111636389     -0.39273000063754
  H           1.38891460411009      2.27834796091717     -0.70478096956802
  H           2.06649982260196      1.13565364952535     -1.87428652843983
  H           3.47655354112645      2.15021877042013      0.65335248156240
  H           3.81209775528753      2.69098114603228     -0.99364711618266
  H           4.17181370959370      1.02915896996748     -0.51889943643434
  N           0.31236558617690     -2.67681516876043      1.13090901840235
