19
Coordinates from ORCA-job NEB E -40.098786299900
  C           0.87411916643367     -0.60427152508509      0.59374094981757
  C          -0.40632146376430     -0.48487954674203      1.22808826283940
  Cl          2.18372100056851      0.24071076835766      1.40419250997562
  H           1.20006799871751     -1.61376347982142      0.35593360423559
  C          -1.33911447189711     -1.55051045618217      1.23970561481008
  C           0.71077320934124      0.20961547986239     -0.99140416191077
  C           0.22629746543616      1.48770097088459     -0.60402583010515
  C          -0.97312286993066      1.58359204004715      0.20937025938385
  O          -0.88179074138433      0.73742674031441      1.44327088580885
  N           1.94429634290234      0.09569230680861     -1.62561084754657
  H          -0.04182960319450     -0.47031655222155     -1.40198713712789
  H           0.90047834706362      2.33061961670478     -0.64140216280509
  H          -1.85567664059831      1.18598424865354     -0.30655320527789
  H          -1.16858500613752      2.58480495014270      0.58567839733525
  Br         -0.69694988747263     -3.32008976762572      1.41529786365110
  Br         -2.90549800219836     -1.22966443978932      2.24552343477662
  Br         -2.27496576728364     -1.61388336218000     -1.04243185944083
  H           2.50893088844384      0.92713395839362     -1.67227587959832
  H           1.99517003495446     -0.49590195052215     -2.43511069882142
