19
Coordinates from ORCA-job NEB_product E -40.128119907270
  C           2.09924681800790      0.07195398711041     -2.24538664752931
  C           0.83157099913911     -0.68953238911122     -2.53742359502210
  Cl          1.83348307310970      0.81621864976188     -0.64057560559010
  H           2.97799385491410     -0.57167226790243     -2.16604307819307
  C           0.95330178730993     -2.20444827836211     -2.48737084476134
  C           2.30698152431670      1.14970251942769     -3.32592323234454
  C           3.47667442086340      2.02602423556679     -2.97390611322493
  C           3.39274119071052      3.33008949577305     -2.79434708674569
  O          -0.21984549005198     -0.18105459830263     -2.78684496238191
  N           2.46467242668654      0.43026535335297     -4.58335208417950
  H           1.38917017266814      1.74394656450398     -3.38629320373088
  H           4.42668421984363      1.51137038851727     -2.90217978250674
  H           2.45241247395941      3.85183037513388     -2.86266242298100
  H           4.25758130745645      3.92873740707182     -2.56603111424852
  Br          1.61286428482581     -2.75932989912997     -0.74697340730903
  Br         -0.75989124822755     -3.01454012695309     -2.82488850633036
  Br          2.21192382463903     -2.76413679655120     -3.85419824312943
  H           3.39681738269721      0.03384669964563     -4.65628469426465
  H           2.33211697713196      1.05252868044730     -5.37091537552690
