23
Coordinates from ORCA-job NEB_reactant E -38.999306430280
  C           1.32170756870567     -0.56784911693239     -0.16827037950403
  C           1.94542611362339     -1.63288616826376      0.37326305923951
  C           1.96402057318800      0.49113482056414     -0.95127568848863
  H           0.26108942590200     -0.43403139018280     -0.02190653889883
  C           3.40573650985003     -1.93185317653768      0.25303714122252
  C          -1.12575550638084     -3.66042904229343      3.26665153957370
  C          -0.46827784575242     -3.71239555117548      2.12074673221958
  C          -0.07681417704198     -2.50946687140138      1.32058449868443
  O           1.32460188194088     -2.57789554908431      1.09032169323143
  C          -1.53352148979952     -4.85170152029027      4.06220767476951
  H          -1.41667610230204     -2.70223358940398      3.67895892139855
  H          -0.16199353039937     -4.65742197465885      1.69569673130531
  H          -0.32633214729854     -1.58787101685291      1.86149115423345
  H          -0.60480586865000     -2.51238097831764      0.35507632435167
  Br          0.63657259523717      1.76101266994717     -1.60925502579799
  Br          3.28183615865760      1.56503622131859      0.10871828584601
  Br          2.94481763823402     -0.16400516175012     -2.54383328214842
  H           3.64905944581547     -2.73703476057070      0.94101396068157
  H           4.01353766000941     -1.06190218740619      0.49008030028119
  H           3.64808809048946     -2.25413781740356     -0.75874966838779
  H          -1.20306667858403     -5.77183561461188      3.58819417641583
  H          -2.61750976798156     -4.87735763923454      4.16864131813636
  H          -1.10724054746282     -4.79519458545805      5.06300707163506
