23
Coordinates from ORCA-job NEB_product E -39.000136161550
  C           0.96417285881699     -1.76842240030678      0.60437971691642
  C           2.09427611670854     -2.81458828098881      0.55110455540109
  C           1.35802956420269     -0.30687779752861      0.62344442258127
  H           0.42588528099259     -1.90790194433256     -0.34608552691375
  C           3.38919991857158     -2.55869244736040      1.26150664139798
  C          -0.05076055362982     -2.13871381741864      1.73246482968156
  C          -1.08044782945275     -3.06242605973144      1.14253415618270
  C          -2.35700161249298     -2.75704498994611      1.01744171821538
  O           1.88068731467844     -3.83358233311472     -0.05139790776076
  C           0.56798074279505     -2.80081802078512      2.96461027566025
  H          -0.55496385066330     -1.22058188748577      2.05547323995580
  H          -0.69537257175749     -4.01638303888535      0.80917642553793
  H          -2.74979336512421     -1.80588248994491      1.33942765547061
  H          -3.06524643046067     -3.44504302415752      0.58986181580422
  Br         -0.23433672459708      0.81038224202393      0.28361299201589
  Br          2.12197787825270      0.32693425551170      2.29488683675323
  Br          2.62059996151819      0.10309679306734     -0.82968273077057
  H           4.01199119500963     -3.44600245047146      1.17075972686199
  H           3.23009276040195     -2.33573670196747      2.31291435173451
  H           3.92021537951577     -1.72063578513563      0.81450496703507
  H           1.06613308615182     -3.73070368818985      2.69998936366174
  H          -0.23151420212642     -3.03488376564458      3.66454543162999
  H           1.27059508268880     -2.14559236720724      3.47312704294745
