21
Coordinates from ORCA-job NEB_product E -37.645604550320
  C           1.47732129389659     -1.26993975543591     -1.51275436591144
  C           0.96501809953547     -1.52557463656791     -0.10075308734406
  C           1.08770188274747      0.14259331954995     -1.93254011965349
  H           2.56624954409166     -1.36468459731814     -1.55638128553269
  C           1.87835981137393     -2.35589810688633      0.75161630326753
  C           0.87350360963047     -2.35487118928098     -2.47155052664602
  C          -0.57490231708711     -2.06616243248532     -2.75225565029931
  C          -1.57614017227919     -2.61441906125657     -2.09143927015971
  O          -0.09914570155708     -1.10205021111384      0.26894804305536
  O           1.64524764302244     -2.47718780655758     -3.63140271863165
  H           0.96629832364195     -3.32450202296061     -1.96893634125207
  H          -0.75576907725194     -1.36322492533329     -3.55504104053698
  H          -1.41371270958159     -3.32039104690640     -1.29457577463141
  H          -2.60036816273982     -2.37206408105296     -2.31438035439235
  F           1.89234316477867      1.04296580057847     -1.31877570782802
  F           1.26461880970056      0.34381477593082     -3.26569529204887
  H           0.04504586241929      0.38648715707626     -1.68417502124380
  H           2.25680307532167     -3.20835029208865      0.19304070203377
  H           1.36007605325139     -2.68879226670678      1.64660355542075
  H           2.72857317759828     -1.74109664561890      1.04460278142829
  H           1.55427778948688     -1.67725197556534     -4.16525482909387
