19
Coordinates from ORCA-job NEB E -43.620445435110
  C           0.18729698363028      0.02098742860378      1.14794021160130
  C          -0.84761242462426     -0.73698947624814      0.54581954852268
  C          -0.17471451569213      1.27711403331241      1.72723626142281
  H           0.91821632170034     -0.51972943256177      1.74642991632946
  C          -0.60970612662699     -2.23589465116473      0.38458302465415
  C           1.10362715469012      0.61209007537086     -0.40564005651392
  C           0.08184113159666      1.25608519077319     -1.13253854018679
  C          -0.98532028687097      0.46726046267331     -1.61865943781909
  O          -1.68791943610879     -0.17915951762783     -0.25062895168382
  C           2.17280938850116      1.40690459688293      0.11241232303998
  H           1.45038068596819     -0.35441241561367     -0.76839000865029
  H          -0.08067233936337      2.31038808038208     -0.95759882889862
  H          -0.73488455932677     -0.45405439116544     -2.13679408916459
  H          -1.82320883151227      0.99023983085749     -2.06050211086930
  N          -0.46664819853523      2.27738878339532      2.19454863803794
  F          -1.73827071561304     -2.91908929300605      0.22303002099907
  F           0.15856175422548     -2.49441523510421     -0.70526291001408
  F           0.04441384285712     -2.76135772026302      1.42821596381698
  N           3.03181017110445      2.03664365050349      0.52579902537615
