19
Coordinates from ORCA-job NEB_reactant E -43.659745067210
  C           1.67740516013445      0.26561439886835     -0.27645276792200
  C           1.39040756111851     -0.33792582371032     -1.44091427598685
  C           1.79939230404386      1.64512414687592     -0.04970531897662
  H           1.82055427755741     -0.34366380556792      0.60517893807800
  C           1.27032874814473     -1.85572165447241     -1.49667460319780
  C           3.29901877341963      3.05910148539459     -2.62185743602120
  C           2.80080912605596      1.88889383296486     -3.01249676901699
  C           1.34884855003573      1.53015886198282     -2.93918770380609
  O           1.15708286499112      0.14801195667021     -2.66465546868933
  C           4.66811483257833      3.36797325891089     -2.75104217414258
  H           2.68353650986488      3.83099906116008     -2.17926274669827
  H           3.44060428349882      1.12741078398003     -3.43971426873896
  H           0.89231015070737      1.66032522653711     -3.92775564858507
  H           0.81158932837702      2.15183062029153     -2.21614032614163
  N           1.90390933772138      2.76192378336465      0.19247377437812
  F           0.06738003739477     -2.23772833678400     -1.93606781569712
  F           2.17867356113205     -2.38154156908203     -2.32659778228989
  F           1.45177745685142     -2.43266693144112     -0.30484993870213
  N           5.77855713637257      3.62778070405678     -2.86217766784357
