19
Coordinates from ORCA-job NEB E -29.571498151280
  C           0.35929361215947      0.07274274750185     -1.15513380917302
  C          -0.87069359650713      0.35943528413766     -0.50828929983767
  N           0.62520733611844     -1.19727847649983     -1.66308226773453
  H           0.85540788939542      0.87434565177980     -1.69210061272620
  C          -1.24663127111053      1.79294600178753     -0.23042768096165
  C           1.38949806974194      0.03093607991833      0.53452558751391
  C           0.79387641102821     -1.02306613160601      1.23015165692757
  C          -0.52315166370599     -0.87303856895531      1.66714522863262
  O          -1.42508694918856     -0.58409135387967      0.15747222822112
  F           2.64354488216954     -0.15382393436866      0.06475373185433
  H           1.27216671516945      1.06084358125388      0.86157489560960
  H           1.18136428149155     -2.01170172876834      1.03522632461200
  H          -0.81131703425505      0.05863847310165      2.13645159387698
  H          -1.03469219839801     -1.73905941021995      2.05774259997795
  H          -0.08792542368800     -1.87226715622647     -1.42618893390278
  H           0.92932891494292     -1.23699053225201     -2.62053575048700
  H          -0.92063902146110      2.08477390422768      0.77074854384972
  H          -2.32914276652858      1.89189208644364     -0.26288356854883
  H          -0.80040818737399      2.46476348262423     -0.95715046770410
