19
Coordinates from ORCA-job NEB_reactant E -29.601510089400
  C           1.56094555126393     -0.04117169747245     -0.13688929867253
  C           1.59690371977270      0.65171444860582      1.00344293680588
  N           1.39140953889654     -1.42166315835795     -0.21641280613931
  H           1.73966180102192      0.45747395513136     -1.07706180163574
  C           1.82165208539687      2.13184547877056      1.07883876112228
  C           3.74486754141444      0.61226279440399      4.43086124864596
  C           3.57909114315477      0.20387078114461      3.18825623385079
  C           2.45208938517648     -0.69488165075945      2.77269904277572
  O           1.35206748998071      0.01870403085687      2.22582276216739
  F           4.74465636926272      1.43914719559379      4.78011389716056
  H           3.13435458884684      0.33562279817812      5.27816143969131
  H           4.24695605769096      0.54908914055547      2.41233034361956
  H           2.03935060474848     -1.21401341916186      3.64169567717794
  H           2.82570622239298     -1.42893939856038      2.04631603351362
  H           0.93229826971363     -1.80204333715516      0.60107899465738
  H           0.95980730844894     -1.73536785481649     -1.07282264145883
  H           2.69924738095245      2.36030717951984      1.68323297291991
  H           0.96470888609938      2.60787432352493      1.55428380151622
  H           1.95412605576527      2.54806838999838      0.08485240228191
