21
Coordinates from ORCA-job NEB E -37.599955921380
  C          -0.23465845424355     -0.73403966164672     -1.16786208531916
  C          -0.92465776452809      0.44326007856214     -1.34530723354331
  C          -1.02364155787806     -1.98709171894778     -0.92664895000574
  H           0.70892392468932     -0.86549049579595     -1.67917710826394
  F          -0.17337803105712      1.44996289097381     -1.93857610348347
  C           0.47204002248719     -0.24417644311128      0.87820423709749
  C          -0.24216217446724      0.91548161929653      1.17252397617461
  C          -1.62504910144090      0.91791648160951      1.10954052782796
  O          -1.94864649229909      0.81057235506249     -0.75306484585702
  O           1.80025009336326     -0.32253960563868      0.75230710914171
  H           0.07836195751556     -1.20339517253271      1.18802098728487
  H           0.26195926354560      1.86774651271535      1.08412787580316
  H          -2.16340874159352      1.83399619075740      1.28550950014938
  H          -2.17081235251664      0.01293313677710      1.32559996165694
  F          -0.29394842795708     -2.93345331867312     -0.24911054716324
  H          -1.30120292858027     -2.44965932014139     -1.88306334848457
  H          -1.92609694844714     -1.78784614799589     -0.34100306819585
  C           2.52409155103063      0.85254262209464      0.43459417072544
  H           3.52966381362087      0.52257187803473      0.18061424010683
  H           2.57181963490541      1.52957551984048      1.29174208266892
  H           2.08055271385086      1.37113259875933     -0.41897137832101
