21
Coordinates from ORCA-job NEB_reactant E -37.628408621960
  C           1.89927120733119      0.10142268835722      0.21490023438413
  C           1.37062641864021      1.26450187317588      0.58429018794346
  C           2.32072638377211     -1.06059721272543      1.04732513655627
  H           2.10099080568886      0.00566823093270     -0.84169168869796
  F           1.07338155418573      2.13093401208025     -0.40960776837333
  C           3.51765493692849      0.40273394086692      3.89340676979805
  C           2.92918471578032      1.27998765169768      3.08692764020026
  C           1.44019523048131      1.42151133982377      2.99832057864880
  O           0.97980127351143      1.83954947690534      1.71971451118420
  O           4.82926857332873      0.19201597611637      4.09152563368114
  H           2.93805563405202     -0.25832920742319      4.52662844427181
  H           3.49142851611989      1.95772408110994      2.46475435858730
  H           1.09157197024542      2.23100919606636      3.65180036395327
  H           0.92983452929970      0.49900997913251      3.30258713843041
  F           3.70182325983335     -1.09331360719861      1.16200008812629
  H           2.04344105402193     -1.99948991406910      0.55556613407082
  H           1.93103289748671     -1.04243952116442      2.06529591097073
  C           5.73451739609676      0.89832073152141      3.27174836668255
  H           6.72676239535423      0.55180942628280      3.55306754853439
  H           5.66167520640925      1.97729310541753      3.43940081400612
  H           5.55265604143236      0.67687775309406      2.21673959704129
