21
Coordinates from ORCA-job NEB_product E -37.644409433800
  C           2.85749297965014      0.20694700407247      1.15699163495701
  C           1.56491994396019      0.76247170875268      0.64777403367529
  C           2.99075191346274     -1.27524159185463      0.81108951364601
  H           3.68911375802765      0.76338559784019      0.71439030795982
  F           1.71518511010773      2.04656506203281      0.21461349439062
  C           2.87639635722423      0.38796196993275      2.71278411488597
  C           2.65917221955446      1.83862390153506      3.05059993351757
  C           1.69943809991145      2.25982390199022      3.85150586622703
  O           0.49748570713735      0.26285739705388      0.61766554365990
  O           4.03509159955768     -0.18137574526398      3.27577141431468
  H           2.06006823861087     -0.21466549396228      3.12890148029794
  H           3.33514640199435      2.54028738768928      2.58138770917004
  H           1.56015380112768      3.30537155161107      4.06540936412962
  H           1.01128741769561      1.57661730420015      4.32095171693765
  F           3.36727994575649     -1.41802104330990     -0.49922591399867
  H           2.03649537370006     -1.79606865340305      0.93490599922743
  H           3.76834887712508     -1.74017912148313      1.42466494424747
  C           5.23760572249917      0.55048508812491      3.15774171864526
  H           6.01104354640683     -0.09937152528634      3.56263188981144
  H           5.20430345800431      1.47483503007823      3.74163607602401
  H           5.47991952848593      0.78529026964960      2.11700915827391
