20
Coordinates from ORCA-job NEB_product E -28.446022496700
  C           2.22906899252340     -0.44284096933509     -1.04486803268138
  C           0.94846258841006     -0.89113547629152     -0.41958262986592
  C           2.32509292798202      1.08069172557287     -0.83207946180513
  H           3.07306612594389     -0.91868076228337     -0.53720744533631
  I           1.16018342734445     -1.25367293081771      1.73075878909395
  C           2.22298243439845     -0.83906716718377     -2.52917657688824
  C           2.22151354805069     -2.32900435350271     -2.68056856268064
  C           1.25603500777149     -3.01733246650681     -3.25799609863570
  O          -0.11499600131695     -1.01878130190489     -0.90880212449721
  H           3.11988258809119     -0.43056459235674     -2.99956611129847
  H           1.34551774166086     -0.41257939851937     -3.01788168184072
  H           3.08301257996814     -2.83590688738908     -2.26323748324828
  H           1.29086223885415     -4.09005198548449     -3.33979428773953
  H           0.38701033174608     -2.53388187987699     -3.67257741042910
  C           3.70857013109603      1.62656808556910     -1.16044063461445
  H           2.10262075042427      1.30609550520150      0.21428208047775
  H           1.57147421234829      1.57434112616261     -1.44936891449520
  H           4.46736664319991      1.13492862473467     -0.55607177666836
  H           3.74026437914311      2.69221944653223     -0.94822770339419
  H           3.95310935236045      1.48445565767954     -2.20979393345288
