23
Coordinates from ORCA-job NEB_product E -41.076214908750
  C           2.46629710461590      0.89550021259818      1.02461566145333
  C           1.52210478421242      1.87916073597209      0.32414351756147
  C           1.76208543386614     -0.46634762001939      1.07258811802319
  H           3.39908881363515      0.75751749021768      0.47272740547357
  O           2.01133954040141      2.81913101649299     -0.47705098140460
  C           2.78372007986087      1.41130897948911      2.45700621403872
  C           3.42388442844231      0.33208687367240      3.28766022492734
  C           2.95273103809487     -0.08664118203658      4.44609601196613
  O           0.33266914156138      1.80114852477975      0.47374821689671
  N           3.65691999009328      2.58220986008230      2.35006188283859
  H           1.83671579800477      1.71933417978039      2.91084073454335
  H           4.34793597726777     -0.06499969115650      2.88526129892222
  H           2.02787520224357      0.29039374255115      4.84947489107375
  H           3.46056931611968     -0.83776942729450      5.02614292714606
  F           2.67826689343281     -1.46481102111376      1.18261492279012
  F           0.94137665710133     -0.59428484539080      2.13136136141652
  H           1.16812240145587     -0.66231577019245      0.16670558839154
  C           3.39776320709526      3.01079904525207     -0.70539354148366
  H           3.46318891559776      3.90866191089170     -1.31737582524922
  H           3.82677819463183      2.17039667280541     -1.25762687262537
  H           3.92125796296837      3.16267032749653      0.23969728140936
  H           4.62762093627855      2.27962509438331      2.33149859786308
  H           3.54318818301869      3.17872489073894      3.16050236402780
