23
Coordinates from ORCA-job NEB E -58.100056545650
  C           0.75193081257060      0.61417966341596      0.03410057938556
  C          -0.45823263058996      1.30593774158691      0.23174545340309
  C           1.40977254528763      0.78580873040127     -1.31315942132460
  H           1.49871888559489      0.72503308837582      0.82137798027400
  C          -0.77315835821412      1.99494885667201      1.50672463457996
  C           0.08609186483196     -1.21076072905642      0.28866352766755
  C          -0.95028422844554     -1.29562974952544     -0.63462384137709
  C          -2.03159295507483     -0.33324916316293     -0.56068962559043
  O          -1.47562654447375      1.08376387471247     -0.57726406924034
  C           1.17553439471092     -2.25946388171348      0.23097362597509
  H          -0.15854358966317     -1.01327877008392      1.32949135170137
  H          -0.81908030327649     -1.87321502056300     -1.53601603412309
  H          -2.58728773738926     -0.36940219099866      0.37948477699573
  H          -2.70436503945796     -0.35512206511715     -1.41358687260277
  Br          1.79223995123614      2.74236016740473     -1.46871659614203
  Br          3.14298736361566     -0.07725313230106     -1.45910687019536
  Br          0.34813174804795      0.33060632151070     -2.86066387881381
  Br          0.72995110900807      2.96916616496257      2.24637616694635
  Br         -2.27145216074255      3.19267465215203      1.24583714766995
  Br         -1.36140189997911      0.64598842667288      2.94473692124640
  F           1.53002469662406     -2.56844046242158     -1.03323253837609
  F           2.28683738831488     -1.84442610828205      0.87854310444232
  H           0.83880468746398     -3.19022641464166      0.71900447749823
