23
Coordinates from ORCA-job NEB_product E -58.140747974100
  C           1.67662689174554     -2.16562566409903      0.75366686092870
  C           0.83013304118303     -1.55194967606269      1.86858066706165
  C           1.48722695839058     -1.24654007719828     -0.45402581511706
  H           2.74086012609190     -2.17666411951674      1.01275295503135
  C           1.51448478676746     -0.90432855467040      3.06954388104604
  C           1.20636689311544     -3.61289494373355      0.47449905947359
  C           1.91565996146499     -4.23489636395495     -0.69684032075770
  C           1.28871318376372     -4.71069870639088     -1.75628321308521
  O          -0.36528482455533     -1.55593215474326      1.81468445668990
  C           1.44271092664608     -4.50246794733132      1.70339609925671
  H           0.12289902643972     -3.61199750329065      0.30641424869187
  H           2.99021373753644     -4.31158449807979     -0.59826962755308
  H           0.21844597755049     -4.64780703607920     -1.86525955557845
  H           1.82912299263229     -5.16906953110362     -2.56515263094891
  Br          1.60657790116942      0.63578786008917      0.09920872518245
  Br          2.88141461548710     -1.51101855162132     -1.78973440461833
  Br         -0.23933632318240     -1.46140906403649     -1.30970493998944
  Br          3.38738453109256     -0.47035430897277      2.86664563865982
  Br          0.52731240067394      0.71173251752454      3.52053744921033
  Br          1.34622481892786     -2.14944195650085      4.56742231931719
  F           2.62552977238318     -4.21975756171177      2.29742603818491
  F           0.48563920216790     -4.30077482222894      2.63509379480709
  H           1.43757340250810     -5.57100733628722      1.44379831410658
