17
Coordinates from ORCA-job NEB E -34.423311095510
  C           0.10441048316670     -1.13715691603554      0.91582823059894
  C          -1.24083615078055     -1.24780223016794      0.62366452349758
  H           0.37176174965423     -0.51814226356782      1.75989535884014
  H           0.74663301052974     -1.98956351472133      0.75228024164449
  Cl         -1.72474207333556     -2.54750376320105     -0.47036693643182
  C           0.56711845430743      0.18508959285288     -0.50190044868439
  C          -0.36259518774391      1.19172540954117     -0.29030450462899
  C          -1.74735030553285      0.85478378846541     -0.42696072520355
  O          -2.03808476102676     -0.24512800824442      0.69701053736016
  C           2.02724289938819      0.47293279950866     -0.25701266116818
  H           0.42220786892929     -0.50451036102723     -1.32634761458424
  H          -0.09838890054299      2.00488023704450      0.37006145150446
  H          -2.01835553195821      0.31984220744397     -1.33533143254967
  H          -2.45731552650650      1.63398605068576     -0.17750015186453
  F           2.23119481830030      1.04527979569378      0.95331098493494
  F           2.76034421909770     -0.66571175796800     -0.26803487559411
  H           2.45675493405375      1.14699893369722     -1.01829197767124
