17
Coordinates from ORCA-job NEB_reactant E -34.444917803530
  C           2.43890000488827      0.37679634373385     -0.19496759664061
  C           1.46171791165438      0.59232823950788     -1.05989096696306
  H           3.13159072065505      1.14573013149603      0.08988762990818
  H           2.57549979208232     -0.59497754397985      0.23651795144560
  Cl          0.37548481571642     -0.66471735831615     -1.52914963643077
  C           4.23602876062671      3.55122085971957     -1.31786836650430
  C           3.24065339327822      2.89295794032898     -1.88719103900399
  C           1.82683498441771      2.91019275786135     -1.38933865677703
  O           1.11469586764277      1.73009262957712     -1.70209949428094
  C           5.63996942248815      3.55406083537872     -1.84226564877843
  H           4.10794605356935      4.13100867718783     -0.41512390257807
  H           3.40494342387585      2.31227650933772     -2.78462198188779
  H           1.27250888716575      3.69905034513072     -1.91039234532110
  H           1.79083191317805      3.10727618179463     -0.31033233465339
  F           6.50256679341225      3.11269769484447     -0.88751626496631
  F           5.79534347536515      2.73265225922372     -2.90420276416050
  H           5.98058377998360      4.56035349717343     -2.14344458240749
