20
Coordinates from ORCA-job NEB_reactant E -33.487677493140
  C           1.51931761422718      0.08031318813166      0.19918191817602
  C           1.94791533648590     -0.21527743876598     -1.02993511960711
  N           0.84397111507016      1.25110539955463      0.52892573771750
  H           1.77380203138280     -0.57339336071990      1.01726957206339
  O           2.79561591619538     -1.27671225997790     -1.24604550740321
  C           4.90399985619946      0.51708898718771     -2.78145738885818
  C           3.71322120709262      0.73964492560714     -3.30961058859130
  C           2.62275880107429      1.45266670054200     -2.56702632910174
  O           1.59987851200058      0.55790112002447     -2.12275389653024
  Cl          6.14159964206128     -0.33919042154440     -3.60472174771977
  H           5.19219440805542      0.85827909820445     -1.79883373404086
  H           3.45909357672026      0.35793917589711     -4.28783851449495
  H           2.10692570112463      2.15068684291502     -3.23223715418771
  H           3.03439889346813      1.99409262720430     -1.70695195518375
  H           0.46337898144748      1.71706804224076     -0.28431039099610
  H           0.15888765527373      1.13983428131936      1.26173949488068
  C           2.37279139960240     -2.18588573305825     -2.24733469742418
  H           3.23282979153509     -2.81310995449185     -2.47222163550307
  H           2.05298459333689     -1.65940188626186     -3.14979097163530
  H           1.54653496764636     -2.80514933400846     -1.88194709156012
