20
Coordinates from ORCA-job NEB_product E -33.518710280560
  C           2.79181885664937      0.21440173786981     -0.71320900061744
  C           2.07705216142992     -0.91350597221013     -1.46558589052345
  N           1.86812915669788      1.17290445548061     -0.13879342467011
  H           3.39449837257988     -0.23155140098070      0.08457050113797
  O           2.69248059726121     -2.07728457485599     -1.29331645084024
  C           3.72471546523836      0.97633639121785     -1.67413869706700
  C           3.00515823534728      1.60761430660059     -2.81689144806360
  C           3.09365013418129      2.89347125795476     -3.10468393530709
  O           1.06565981493489     -0.75601771383567     -2.10106508233355
  Cl          4.94249255569921     -0.17059615384765     -2.32844830030476
  H           4.27661065006430      1.72558613955950     -1.10200546304032
  H           2.40086070122318      0.94216000286854     -3.41709899630104
  H           2.56710479943039      3.32267463354404     -3.93916109274158
  H           3.69314450263241      3.56689795361380     -2.51471744346448
  H           1.25333429233853      1.52465704030977     -0.86735916535592
  H           1.28745532452356      0.72632965062747      0.56267379105708
  C           2.15870899555699     -3.20596104996347     -1.97638491410798
  H           2.45398374764188     -4.08357839946145     -1.40646748594533
  H           2.57566624772000     -3.25416237664034     -2.98388871698460
  H           1.07157538884945     -3.12867592785135     -2.03822878452655
