23
Coordinates from ORCA-job NEB_product E -36.861198543200
  C           2.84199237111656      1.33696421031071     -0.27853647143691
  C           1.95476409652133      0.76060024483033     -1.36348070464972
  C           2.31790219781917      0.84399552598682      1.06898600443873
  H           3.86822772890856      0.99289740720877     -0.43613795277348
  O           2.50926962382898      0.89980972281268     -2.56882524239185
  C           2.88189791604550      2.88595864493126     -0.41791714649251
  C           1.62166358925057      3.51590487512075      0.11674664088041
  C           0.64093172941264      3.96538329083942     -0.64258772848935
  O           0.88121603702928      0.24995835140084     -1.17873372394306
  N           4.09782272472605      3.37429958596598      0.21329359250086
  H           2.97279580103639      3.10978784130672     -1.48826144874769
  H           1.57434894890371      3.61109292911331      1.19420314402661
  H           0.67726910384405      3.88790931601509     -1.71732017782244
  H          -0.24086488772662      4.42311822463121     -0.22767258605388
  F           3.03595239312018      1.36753105054631      2.11527344952914
  H           2.40531616423195     -0.24431849358121      1.13863418289084
  H           1.27395786901818      1.13601168271208      1.21216236980628
  C           1.74522884614651      0.42235647566728     -3.66982587340210
  H           2.34434931097235      0.60760617483679     -4.55725425702826
  H           0.79329264012680      0.95344140354504     -3.72872689760784
  H           1.54408366033037     -0.64441897995653     -3.55618436050613
  H           4.09165808568295      3.16580409253640      1.20606079042426
  H           4.16592404965452      4.38000642321994      0.10520439684810
