23
Coordinates from ORCA-job NEB_reactant E -36.837500523530
  C           1.71109400823716     -0.24485564453047      0.19425497344422
  C           1.76596402353610      0.60023883889977     -0.84184082508742
  C           0.79181874082229     -0.07426361606128      1.35230432191116
  H           2.38216069004826     -1.08644619401945      0.19726041621015
  O           2.60924288546481      0.31771634408965     -1.86735406273428
  C           2.87752266618422      4.49378442915598     -1.14968032291093
  C           2.67451238935250      3.38192629261303     -0.44452946222756
  C           1.31857470507420      2.83154186676500     -0.14871534724808
  O           0.98387342527825      1.70288886053484     -0.98389235059704
  N           4.10866444257562      4.96524725253817     -1.55143909842210
  H           2.03952562307680      5.07621043099944     -1.51000939295815
  H           3.51278289450508      2.79368320833810     -0.09602750461665
  H           0.53896764001125      3.56117673408702     -0.37612752495795
  H           1.25463253185700      2.53962123707928      0.90398630286595
  F           1.40766521628237      0.58974245355232      2.41042311523172
  H           0.48096338202727     -1.04210235522905      1.75621521426565
  H          -0.08464430730946      0.52618038633998      1.08892710279522
  C           2.53027854815477      1.13251778328314     -3.02269888571564
  H           3.22722951666178      0.69251352707435     -3.73282654950668
  H           2.82181847966927      2.16320593745107     -2.80325184251031
  H           1.51950766538030      1.12555203312166     -3.43757987928662
  H           4.89993889408699      4.54820271905637     -1.08412919793143
  H           4.18800593902318      5.96181747486109     -1.67356920001324
