23
Coordinates from ORCA-job NEB_reactant E -53.070750659630
  C           2.24747622583297     -0.52192296578606     -0.23756618112677
  C           1.97538799461770     -1.03619052598181      0.96894365357346
  C           1.47724303642935     -0.49360280911772     -1.50281151481708
  H           3.18486616903090      0.01107937741661     -0.30370568706180
  C           2.95141468279590     -0.79772011433782      2.10576725295887
  C           0.31012703015845     -4.89694793843591     -0.26192860801669
  C           0.88388982489969     -3.79250654053584      0.18465679331032
  C           0.13301130390830     -2.59218295798240      0.67573688822858
  O           0.94697431836580     -1.74639563541994      1.47178509317160
  C           1.07949594837183     -6.07671807457073     -0.77286604593057
  H          -0.76161362044012     -5.01031775425882     -0.32412931250283
  H           1.96218317984369     -3.71472992955842      0.21682234977380
  H          -0.67368097069528     -2.89456841250499      1.34960006950727
  H          -0.31209809964957     -2.05029554188420     -0.16366557470149
  Cl          1.37263584366616     -2.09957442463229     -2.31290739541084
  Cl         -0.19114096559456      0.12526494638246     -1.26997553970431
  Cl          2.27273727124741      0.60780825317057     -2.65266918230760
  F           3.88150887149033      0.15449188699647      1.81569775344771
  H           3.49351401286128     -1.72234798558313      2.33748092266000
  H           2.39903140077656     -0.46756810650315      2.99170013102287
  F           0.79171645815863     -6.30520924938476     -2.08216327717638
  F           2.41717084931501     -5.88559886870509     -0.70637425044370
  H           0.84744923460956     -7.00714662878301     -0.22562833845442
