23
Coordinates from ORCA-job NEB_product E -53.076247025700
  C           1.68086320626622     -1.74071000296516     -0.13113374061335
  C           3.03698415271134     -1.89622652595260      0.57500111248314
  C           1.88903917913183     -1.32299830037358     -1.58884796698520
  H           1.16219474844597     -0.89420627481462      0.33295298084673
  C           3.03037694958099     -1.50959436182426      2.04494341529712
  C           0.78837186555804     -2.99264902390242      0.14261358477879
  C          -0.27803393376163     -3.22790928411926     -0.89286407582372
  C          -1.56557637185099     -3.08036670520819     -0.64670509027695
  O           4.03904700326921     -2.26064469287065      0.03475107138881
  C           1.54718944074440     -4.31390448102764      0.34028253222597
  H           0.30637513366943     -2.80867012535199      1.10990160235072
  H           0.07234719416085     -3.58026956504482     -1.85167254597917
  H          -1.92874308926198     -2.73545501877981      0.30737250526273
  H          -2.30794400689663     -3.28213497616923     -1.39822201575140
  Cl          0.35371441711753     -0.73604744419434     -2.28182772848570
  Cl          3.00384376629559      0.08243706113748     -1.59188499720166
  Cl          2.55885422303948     -2.56624436262501     -2.64100187329431
  F           1.77314424953359     -1.25999533491005      2.52393943126748
  H           3.61950416644980     -0.59356076930857      2.16941696542783
  H           3.46673110003485     -2.31228884450338      2.64673863596878
  F           2.37153155877739     -4.63642940964044     -0.67028478261331
  F           2.31596825905400     -4.27459361624665      1.46034572273911
  H           0.83421678793072     -5.14533794130481      0.46798525698757
