21
Coordinates from ORCA-job NEB_reactant E -41.864098731020
  C           2.97329722599314     -0.44382089472815     -0.55189934970780
  C           2.10679098800077     -0.97884062325783     -1.40545284634255
  H           3.44475191006385      0.50392287746977     -0.71052228630377
  H           3.23658921750441     -0.99342172428017      0.32901117809088
  O           1.58669327893024     -2.20464945794536     -1.16505365896688
  C           4.22893302694169      0.04371462803687     -3.66005818097880
  C           3.39823228532151      1.04528526183957     -3.41813027936420
  C           2.01198907012674      0.89284418155084     -2.87539457153883
  O           1.63665009137936     -0.42241695228501     -2.56554148760061
  C           5.59787687347008      0.28481020638465     -4.21262025773134
  H           3.98239990821849     -0.98839471614313     -3.46941386683597
  H           3.69037241012232      2.06602206089548     -3.62581716416466
  H           1.30076884160941      1.21914691764214     -3.64378229422686
  H           1.89052442831949      1.54730077898059     -2.00061860777116
  C           0.62226962101238     -2.70481509890653     -2.06932337318513
  H           0.34008042374393     -3.68005238517829     -1.67804732431119
  H           1.03679474812901     -2.81401985902696     -3.07467202415629
  H          -0.25525926828406     -2.05501916247548     -2.11512799921136
  F           5.57249053937079      0.93734374228247     -5.39112005873267
  F           6.35938926480085      1.03774761169234     -3.39618901799301
  F           6.26916511522564     -0.85308739254780     -4.42112652896778
