21
Coordinates from ORCA-job NEB_product E -41.891322319220
  C           3.31496822790437     -0.90970347042431     -1.71522226761224
  C           1.86262592123210     -0.90840015486593     -1.25380058241094
  H           3.90736425139001     -0.43473991321700     -0.93072136654765
  H           3.69267875893984     -1.91777381022152     -1.88566332782470
  O           1.04843236059779     -1.88216488349346     -1.67706363190680
  C           3.42642613964930     -0.06803947030964     -3.00086636645445
  C           3.12016024853987      1.38022193749978     -2.73521485815849
  C           2.16200164246907      2.04783102101816     -3.34608600822774
  O           1.41947029591178     -0.04373410094609     -0.55206045665234
  C           4.84313455130923     -0.19672357590185     -3.55476014890989
  H           2.75772197313458     -0.45246774615908     -3.77930207920314
  H           3.74546621491686      1.85025106428176     -1.99011023202188
  H           1.52666637951106      1.59075392149423     -4.08682455842123
  H           1.96856399842756      3.08147640872014     -3.12276539347035
  C           1.48599614644791     -2.97739959324020     -2.45990091139955
  H           0.58537354040010     -3.54825762316697     -2.68072133097607
  H           2.18104116014133     -3.61175279562429     -1.90425531757911
  H           1.94637355408941     -2.65855021756488     -3.39712134350480
  F           5.01019232257672      0.50423676091543     -4.68319875036832
  F           5.78019683100817      0.21754365852967     -2.69514333058099
  F           5.14384548140294     -1.47470741732396     -3.85779773776931
