19
Coordinates from ORCA-job NEB E -33.636436716280
  C           0.35944787018767      1.12367093620945      0.75337188800947
  C          -0.87089221496001      1.60561198624421      0.33120220372642
  Br          1.94554145688879      1.83567880335184      0.00640456140997
  H           0.47167513037360      0.87128354074292      1.79843321888163
  O          -1.90834802197247      1.36955356077648      1.19176575814684
  C           0.23083034599352     -0.74595202570916     -0.28530787147083
  C          -0.00624843577195     -0.25627826713504     -1.56450456934509
  C          -1.19688642828822      0.41755039350107     -1.85002475805078
  O          -1.12940206956784      1.90981223338852     -0.87222387777180
  O           1.41751322330808     -1.33109453321116     -0.04185974385377
  H          -0.60346210853070     -1.07275059352995      0.33566917946899
  H           0.85973861690784     -0.08914039068285     -2.18685103637810
  H          -2.11630091833784      0.04047822197959     -1.41811808567346
  H          -1.31195139796367      0.86098264684742     -2.82655588139500
  H          -2.73525265678285      1.60995293465737      0.75113673124149
  C           1.60000867004170     -1.91819985858609      1.22573047652044
  H           0.73561549086907     -2.52407399179602      1.51541596366460
  H           1.77700749915902     -1.15558532278545      1.99056338792267
  H           2.48136594844626     -2.55150027426315      1.14575245494628
