19
Coordinates from ORCA-job NEB_reactant E -33.665299613340
  C           1.50754066073384     -0.10084364551393     -0.30259671129655
  C           1.58129943286141     -1.00187717017286      0.67899924797370
  Br          2.21120589820717     -0.19812394327288     -2.05459913970301
  H           0.99040750966924      0.82057515703023     -0.10510186817877
  O           0.99413747982586     -0.67265064307294      1.85618379206595
  C           2.67489437387807     -5.32692069869110     -0.34129773984549
  C           3.22449091538438     -4.20777821479034      0.11764831279375
  C           2.77600608292090     -2.85722254046228     -0.33778233581930
  O           2.13488798728166     -2.22639986537210      0.77358909964136
  O           2.97394870640018     -6.60079828774154     -0.02557408664470
  H           1.89001544689815     -5.30720538785769     -1.08633590964333
  H           3.99961240526077     -4.21057308570734      0.86676384436099
  H           2.07298787439911     -2.94817864924736     -1.17076592167181
  H           3.63711744417330     -2.25475884542570     -0.64839159679972
  H           1.11885355955463     -1.41316709908855      2.46590163100854
  C           3.98595043222284     -6.82027912642746      0.93133918914701
  H           4.06738701588937     -7.89994326570548      1.04080307507472
  H           3.72253964117627     -6.37293636026338      1.89439091267737
  H           4.94301713326284     -6.41241832821730      0.59282620485930
