19
Coordinates from ORCA-job NEB_product E -33.687464775560
  C           2.27296852400831     -2.20554327794353      0.54746706375847
  C           1.06974899971213     -2.39070336971863      1.45203904690711
  Br          1.67062605641173     -1.12339959455419     -0.94641643310863
  H           3.05176342004806     -1.64188260578615      1.06194461151481
  O           1.09345782675301     -1.53203280586223      2.46848217909291
  C           2.79065135926889     -3.56274865392310      0.06362567949539
  C           3.92695055721139     -3.40057499883135     -0.90693199001116
  C           3.84316132749627     -3.68825102354271     -2.19141667594549
  O           0.19557838953314     -3.18820437694936      1.26837584692298
  O           3.19408790951664     -4.22751815128084      1.24908297793297
  H           1.95626695176761     -4.10714600919194     -0.40819731680839
  H           4.84031527645148     -3.02389163616115     -0.46663464074671
  H           2.93310439000938     -4.06264953376932     -2.63104424535145
  H           4.67463638604632     -3.54541189187903     -2.85942231703107
  H           0.31136128776281     -1.63967326896312      3.03380245358074
  C           3.35779507716631     -5.61572583204461      1.08341901585444
  H           2.41484283909374     -6.08749348436953      0.78464940106731
  H           3.66803828932401     -6.00080169753756      2.05222236563233
  H           4.12404513241878     -5.84114778769163      0.33365297724344
