20
Coordinates from ORCA-job NEB E -41.104052158300
  C           0.25949880068729      0.79379418133111      0.75935931868571
  C          -0.16943261354227      0.06002185116308      1.87300953401401
  C           1.66263517134524      0.77519060271512      0.19228918288218
  H          -0.10080135189161      1.82162791604597      0.73981851777294
  C          -0.80233481285390      0.68901918568661      2.96775099337964
  C          -0.22886201641310     -0.40473011487075     -1.73938746828985
  C          -0.66888591536188     -0.49909203690246     -0.44069183292003
  C          -0.24468518624475     -1.67706167945299      0.42377907480816
  O          -0.27667690277226     -1.26424914753110      1.78691833774939
  N          -0.88712913114614      0.42287439349624     -2.66046665447232
  H           0.66636845675960     -0.87441436546616     -2.11461197962250
  H          -1.68214373371006     -0.13759562561855     -0.27950120301652
  H           0.75352104342246     -2.02712160216519      0.15078165872581
  H          -0.95027887526023     -2.50934841932405      0.34063313029139
  F           2.30140722171295     -0.42568369560741      0.31261758348550
  H           2.26901869235633      1.50291218222252      0.74816461167577
  H           1.65831975679010      1.03811827527393     -0.87201376854725
  N          -1.26066437293067      1.19918950777267      3.88784265296582
  O          -1.85975344982896      1.05846227237150     -2.28143934423017
  O          -0.43912078111814      0.45808631885992     -3.79485234533770
