20
Coordinates from ORCA-job NEB_product E -41.131035325250
  C           1.21881091529672     -1.34174313549512     -1.46545267765472
  C           1.87918344166616     -2.42788895331178     -0.60952922450833
  C           2.16411500874537     -0.14760767180798     -1.64788233884417
  H           0.35910492118149     -0.98352705350491     -0.88265718709783
  C           2.56868865978356     -1.88841540895367      0.55147035248280
  C           0.67963271454411     -1.95743051679189     -2.77877631003599
  C          -0.66052404636209     -1.38853488372758     -3.13987403369484
  C          -1.77137944317375     -2.09975674721611     -3.13452971544605
  O           1.80452144599623     -3.60405443789137     -0.82678417946541
  N           1.62238267307885     -1.71567376077812     -3.91873439212098
  H           0.62831731590689     -3.04642004407286     -2.65403684199233
  H          -0.65614811440789     -0.34442996406865     -3.42078881003319
  H          -1.77848893548035     -3.14338758924717     -2.86616195486542
  H          -2.72013853997068     -1.66439020358861     -3.39364615927396
  F           3.38352258652307     -0.58329748568407     -2.09286235725349
  H           2.33838596642022      0.36543818896128     -0.69658000289371
  H           1.78342629699512      0.55632958883338     -2.39505958290645
  N           3.09520759305161     -1.46806829086370      1.47559142370009
  O           1.63138192845929     -0.60726712378141     -4.39357359282374
  O           2.27219761174607     -2.65357450700966     -4.29103241527227
