17
Coordinates from ORCA-job NEB_product E -33.707028025900
  C           2.08132485292269      2.04075746735702      1.76474243801102
  C           0.61196814124593      2.28233683044361      1.52975474851150
  I           2.39886291330801      0.22142545408958      0.61971496060496
  H           2.70340246577582      2.79271808712387      1.27911593077764
  H           0.39285988253232      2.68129372725086      0.52268930911810
  C           2.43097759485295      1.87342334697781      3.24068117731921
  C           3.71491612199955      1.12633841068259      3.46618689768173
  C           3.80602076058463      0.04013074296912      4.20895905791735
  O          -0.24994049021238      2.01947678846459      2.31474759427244
  C           2.56488531697355      3.27061676760954      3.86137432395340
  H           1.59747113589228      1.36724370323010      3.74152782172398
  H           4.58276391321840      1.54402655400875      2.97372581381993
  H           2.94831466797703     -0.38615008348584      4.70298868847023
  H           4.74121509506786     -0.47432432460975      4.34203144840464
  F           3.58289867858839      3.95553018147500      3.28213236420077
  F           1.45861290735597      4.02145475342930      3.66037178624863
  H           2.75924604191697      3.23060159298386      4.94335563896445
