19
Coordinates from ORCA-job NEB E -30.936837705120
  C           0.33624421665066     -0.59893447830024      0.71789010123809
  C          -0.33916972568355     -1.28900082979630     -0.31748575088019
  C          -0.43644015128822     -0.19597029686131      1.95675633859042
  H           1.29389827805731     -1.04968343091108      0.97725854874251
  C           0.33708123176124     -2.33161381936849     -0.98987852702086
  C           0.71157689998401      1.05599712331569     -0.11088486362763
  C          -0.09996796335333      1.19238162922807     -1.25943790557614
  C          -1.47058998413121      0.74680402832880     -1.07182030991141
  O          -1.37200520508465     -0.74551996477472     -0.94928399062083
  C           2.12539266216634      1.08972103894058     -0.30971603715415
  H           0.40977477527145      1.65278057685106      0.74695647630555
  H           0.34486079691713      0.96954257593481     -2.22192731484288
  H          -2.12310834480749      0.87450670411764     -1.93245953466020
  H          -1.94923441584078      1.12976015883182     -0.16681900750467
  H          -1.38300338631485      0.28498058598176      1.72368104907320
  H           0.15568880919121      0.46054028670533      2.59135206982205
  H          -0.65388284947124     -1.09954464878186      2.52702165019998
  N           0.85140972339439     -3.24200487064190     -1.46759224887955
  N           3.26147463258161      1.09525763120032     -0.44361074329328
