19
Coordinates from ORCA-job NEB_product E -30.981299670120
  C           2.14133849600913      1.20577504464909     -0.59541029728330
  C           0.92067642376828      0.38431269399709     -0.96756713603468
  C           2.42832458562186      0.94295711158251      0.88973956514880
  H           2.99777846293485      0.86427133208731     -1.18862062023933
  C           1.24675445880496     -1.02772798663907     -1.10353957738106
  C           1.86893586152612      2.69695935783644     -0.87836773915817
  C           1.69703139661811      2.94896902640951     -2.35565759427601
  C           0.61594248855843      3.48702780371141     -2.88428750231869
  O          -0.19398636846806      0.81265008517110     -1.10260685316879
  C           2.97721831804702      3.49780629122863     -0.40821315402077
  H           0.96282505250273      3.00447309211717     -0.34292139372796
  H           2.53849388365668      2.65811305636130     -2.97132255777989
  H           0.52717298880115      3.64767606424412     -3.94466348732978
  H          -0.22871925395766      3.77917838267946     -2.28279861439210
  H           1.58079137029260      1.24724387522701      1.50172665853329
  H           3.30260078002532      1.50956025172595      1.20265080215406
  H           2.62029591750920     -0.11472833229069      1.06044550213101
  N           1.54040079353334     -2.12739656493797     -1.22162240027169
  N           3.86522434421593      4.12837941483963     -0.06226360058493
