31
Coordinates from ORCA-job P E -42.169285908670
  C          -1.37796251237885      0.28215770673225     -2.38784848885219
  C          -0.53988250788120     -1.53004555893525     -0.51709495849401
  C          -1.95459352041618     -1.61027792500931     -0.99396625617966
  C          -2.36234128786744     -0.73957981816339     -1.90238547125082
  C          -0.73079066196545      0.94887445739085     -1.15257948885319
  C          -0.17537605337272     -0.07512470664483     -0.13898621260047
  H          -2.60244682052557     -2.36940459126988     -0.58514736035088
  H          -3.36814511112971     -0.69981283828208     -2.28793323368653
  C          -2.02796774201079      1.36650631203126     -3.22733739151949
  H          -0.37036538452296     -2.17787326514490      0.34327131991465
  H          -0.59024325545110     -0.20919118380139     -2.97099984480342
  H           0.13000717093100     -1.86202797718303     -1.31671722833848
  H          -1.49965869321612      1.55450641934983     -0.66975286073185
  H          -0.63670009580654      0.12732738835104      0.83222425255417
  H           0.06673894835885      1.62202491529662     -1.47275486020430
  C           1.31951059962031      0.04049747676221      0.01814683754231
  O          -3.16385821830234      1.72748135538692     -3.05509164216825
  C          -1.13149031067111      1.96489622676983     -4.28243338804063
  H          -0.97983195255439      1.22968121562360     -5.07151741425433
  H          -0.16059800430858      2.21447760844247     -3.86110489724012
  H          -1.59037117148955      2.85240195358533     -4.70980675275668
  C           1.88739283858071      0.19157841517771      1.27609816759891
  C           3.26011248787379      0.28026094557538      1.42948580113666
  C           4.08777555519615      0.21828069630849      0.32253104713118
  C           3.53348807938261      0.06594759727813     -0.93713095964816
  C           2.16183645133776     -0.02328758750051     -1.08644863736400
  H           1.24762291190389      0.24209034119225      2.14596004131036
  H           3.68376717742047      0.39897707784477      2.41608185608211
  H           5.15907793358124      0.28815667135551      0.43935314646357
  H           4.17328778445605      0.01558662926663     -1.80645649572799
  H           1.74375536522777     -0.14368595778654     -2.07562862666851
