20
Coordinates from ORCA-job NEB E -29.122432079580
  C          -0.48370502246977     -1.21212797274450     -1.04309655323771
  C          -0.89088259008188     -0.05110075753899     -0.37747818375383
  Cl         -1.28853387427903     -2.73106202973308     -0.69602481069173
  H          -0.26046480258661     -1.14506802537851     -2.10185809257951
  C          -0.71570120721702      1.28529659575592     -1.07055113087665
  C           1.21999372378166     -1.46609281859731     -0.13838009533190
  C           0.81749787603623     -1.58500641939936      1.18587999914124
  C           0.19011407498586     -0.45307646771249      1.78914941658766
  O          -1.11293193849208     -0.09826294589886      0.90661517016239
  H           1.61321672474714     -2.34268751128873     -0.63360094521485
  H           1.68973963705256     -0.54430006096833     -0.45617769736687
  H           0.54878785742635     -2.56419970308791      1.55444057266636
  H           0.74019463902662      0.48198162578286      1.73044968413705
  H          -0.24041992748951     -0.61092341528482      2.77140015469113
  C          -0.11088641336663      2.36565787518130     -0.17869441173606
  H          -1.71049324385568      1.61242183647601     -1.39018464724835
  H          -0.11465636178096      1.14909698063121     -1.97169322302214
  H          -0.65691444033585      2.42156019533336      0.75975088212123
  H          -0.16939175621595      3.33260480050199     -0.67213966459467
  H           0.93543704511454      2.15528821797024      0.03219357614722
