20
Coordinates from ORCA-job NEB_reactant E -29.157147301370
  C           2.47109377668347      0.66875187478399      0.39073498671896
  C           1.88777734359090      1.25564736287283      1.43370011173707
  Cl          3.77288513806346     -0.47863539894688      0.36814336323249
  H           2.12934639860776      0.90071689410311     -0.60348532728719
  C           0.79812540633647      2.27384160722993      1.18043517128415
  C           3.40023547545894     -2.22742117576557      3.19013419173899
  C           2.59324426145045     -1.18495603688000      3.20853099892376
  C           3.05440914194356      0.24097297684241      3.29658330760037
  O           2.11415123747314      1.15770074985706      2.76382779075896
  H           3.02440452778674     -3.23481651218255      3.15006619852554
  H           4.47162167809872     -2.11520800275989      3.21106423308139
  H           1.51857844199196     -1.30658498675219      3.18142682173072
  H           4.04023350513588      0.37095802229238      2.83997935389146
  H           3.12273060988985      0.53085295796711      4.35297410670997
  C           1.38086233020255      3.68605859929172      1.14134702515956
  H           0.07668546956401      2.20372671673206      1.99513142164060
  H           0.29288942029019      2.05361953339102      0.24105793374779
  H           1.88486006063526      3.90898696753776      2.07792044001502
  H           0.58933574887597      4.41573867441899      0.99002573490068
  H           2.09933002792071      3.77654917596671      0.33050213588972
