20
Coordinates from ORCA-job NEB_product E -29.170869269590
  C           2.70422874000693      0.29952932594193      1.29277622194301
  C           1.64902996134040      1.33464470264532      1.67511683331384
  Cl          1.85680979047718     -0.91185211891033      0.26749463829136
  H           3.45194921025674      0.76117435598926      0.64140278339760
  C           1.15687675928252      2.18360590818167      0.52605954648498
  C           3.37146978652894     -0.37824410474106      2.48436618668478
  C           2.40614203037606     -1.08877544314012      3.38365366457977
  C           2.39767505267947     -0.97557824925504      4.69701417217324
  O           1.27456748430221      1.48201936420100      2.80673133819911
  H           4.10171603451916     -1.09903393763634      2.10227558065047
  H           3.90725711514076      0.38748526828907      3.05000609001036
  H           1.70566668569325     -1.74428180324136      2.88469401497337
  H           3.08308889570926     -0.32630882645633      5.21613568483640
  H           1.69918488901407     -1.51954736816109      5.30841661600001
  C           2.02110439073323      3.44557830092893      0.43916094399974
  H           0.12402090666087      2.47204192076822      0.72529465363942
  H           1.20584720828671      1.63228697050078     -0.41223735975638
  H           1.98934400839738      3.98776568643764      1.38105339349374
  H           1.64830876324283      4.09484981234022     -0.34869187857719
  H           3.05631228735205      3.19454023531764      0.21827687566238
