16
Coordinates from ORCA-job R E -24.443631241700
  C          -1.19580465039824     -0.09990407018557     -2.86615131086003
  C           0.01428336476866     -2.75121280062235     -2.12330545814616
  C          -1.17890123964324     -2.30009887465403     -1.74910462146839
  C          -1.78308587256455     -1.03567109853444     -2.12891542774871
  C          -0.92328003920197      1.93463931557040      0.17236301613838
  C          -0.41140527354679      0.73505621631580      0.33314919625247
  H          -1.78904601128890     -2.90687884171106     -1.09187378022205
  H          -2.78425271127251     -0.86622326646465     -1.75525206404772
  I          -2.12447487902256      1.72367661555422     -3.33795225617932
  H           0.38313900317714     -3.70082966623320     -1.77722405412446
  H          -0.20582426541438     -0.18427327478033     -3.27663228550930
  H           0.66705518246727     -2.20110379634009     -2.77789989639236
  H          -1.93913237463170      2.13864759940031      0.46850306998944
  H          -0.94479744936412     -0.09854002397031      0.75653101722012
  H          -0.37290091078943      2.75290911777625     -0.25904880227710
  I           1.55792812672532      0.23367684887904     -0.22387634262482
