14
Coordinates from ORCA-job NEB_reactant E -25.385404455320
  C           2.26436405328225      0.36204978420469      0.01553504219126
  C           1.32495613876824      0.98248707737426     -0.68511152278307
  I           3.76820383229691      1.10156549181203      1.29742281617493
  H           2.29901091221634     -0.71156056887717     -0.02453248254414
  H           0.64992216910798      0.34390377363658     -1.24938148271558
  C           4.04795877245364      4.10172475682442     -0.72434804549879
  C           2.94201585808721      3.58376451617610     -1.21943328725104
  C           1.69861118512383      3.35410987709039     -0.40814040838251
  O           0.94684921695796      2.25565663533601     -0.88884918635470
  I           5.75797334351123      4.47019742803071     -1.88633797836738
  H           4.16419486335771      4.38432310514245      0.30808903743915
  H           2.85968491568486      3.30720326597294     -2.26122849674751
  H           1.02445908765715      4.20895616147060     -0.54375621327222
  H           1.92179565149470      3.26151869580597      0.65867220811159
