20
Coordinates from ORCA-job NEB_product E -35.834430633010
  C           2.45587973757744     -1.51054996751675     -0.21999217858472
  C           1.24221628596433     -2.05409676307768      0.47676526397722
  C           2.07090647776301     -0.22715425531920     -0.95831561568989
  H           3.24624530801139     -1.29051203981531      0.50476909235132
  C           1.40493972278682     -2.32643908076353      1.97602722285014
  C           2.99712288040383     -2.57465645478624     -1.20674566737006
  C           2.04881082463369     -2.88334496639652     -2.32161922553898
  C           2.32409069916316     -2.67842458669318     -3.59577443406621
  O           0.17900064363675     -2.26716994979243     -0.02995889029517
  H           3.22013180138118     -3.49277101841838     -0.65457981011150
  H           3.93422774045373     -2.19246239862955     -1.61565624684696
  H           1.09336994572662     -3.29664449806734     -2.02918477840152
  H           1.62238556650042     -2.92148949760152     -4.37453285945349
  H           3.26873494111179     -2.26870703797761     -3.91538699007110
  H           1.24132414225529     -0.41964467394593     -1.63379087001812
  H           2.91898034044263      0.12890993224072     -1.53674120175574
  H           1.77991340269233      0.54819625859152     -0.25242783306663
  Br         -0.19755553228549     -3.14730464423426      2.68342023230654
  Br          2.93313581171725     -3.47563742288446      2.32826033269580
  Br          1.68863926006384     -0.59809693491235      2.84406445708908
