19
Coordinates from ORCA-job P E -32.448177435340
  C          -1.26163964121325      0.65048490064560     -2.11706227539595
  C          -0.49533642947338     -1.75234217683597     -0.49211567775151
  C          -1.16959674528804     -1.82583884849775     -1.82822373634497
  C          -1.50469450954249     -0.77014635875296     -2.54919867312953
  C          -1.02093380881137      0.71752236382056     -0.59965324034279
  C          -0.01421597635194     -0.34662555056388     -0.16193986588235
  H          -1.37624803803648     -2.82297755027538     -2.18785795802022
  H          -1.98332857626840     -0.87757917607082     -3.51120293239693
  O          -2.31107344175040      1.50668879017545     -2.50673095064060
  H          -1.19478400978183     -2.08273963948064      0.28167627869980
  H          -0.38580856637636      1.04529280637097     -2.65054704435505
  H           0.35035455404661     -2.44457527185408     -0.48253968866469
  H          -1.96534516836611      0.53895509853291     -0.07969142403874
  H           0.18550807773394     -0.23716820484845      0.90996523228322
  H          -0.66010759229222      1.71070474156050     -0.32791434752997
  N           1.28153143796480     -0.04976725169185     -0.83629265134778
  H          -3.14089521285689      1.16801367334752     -2.15102467605899
  O           1.74416845313670     -0.86993636011437     -1.58730645863602
  O           1.78414519352709      1.01497401453265     -0.56899991044693
