19
Coordinates from ORCA-job R E -32.362172758260
  C          -1.37770733582218      0.29718204066936     -2.79961606491649
  C           0.00861173702511     -2.16523816834011     -1.72976481137923
  C          -1.28501178181417     -1.87402235898551     -1.61142017384286
  C          -1.96667371498886     -0.73303220639637     -2.18103432556065
  C          -0.89855069284295      1.09301957763508      0.02043786107636
  C          -0.14363543750985      0.12357157999817      0.51532672270419
  H          -1.92011106785994     -2.53873708305470     -1.03931495308466
  H          -3.04681375736469     -0.72761572637975     -2.08345178614860
  O          -2.02261805988996      1.35828084140724     -3.32260322911438
  H           0.43125807308732     -3.03519784630501     -1.25842092092184
  H          -0.31002194831643      0.37932528365344     -2.93468816319856
  H           0.68619814736879     -1.56353573599446     -2.30983052330445
  H          -1.91330282152986      1.24032409133984      0.34229749614024
  H          -0.44917202743150     -0.59341159565050      1.26063652182371
  H          -0.49231777851814      1.78274858269481     -0.70131012129843
  N           1.21150300274780     -0.05133031993458      0.08516878968917
  H          -2.97852108892997      1.25347511391704     -3.22147734442660
  O           1.87341104905730     -0.87004574347706      0.68797010889459
  O           1.61518550353218      0.62466967320309     -0.83744508313150
