19
Coordinates from ORCA-job TS E -32.355944758430
  C          -0.69284111889057      0.68778481538757     -1.29224876689794
  C           0.62006885803022     -1.64789813236094     -0.18832386688940
  C          -0.71106347399266     -1.59495644903412     -0.42148269477388
  C          -1.35040147603507     -0.47743024089757     -0.99891003515315
  C          -0.19683136654103      1.19209483808321      0.78850104172629
  C           0.57723602087594      0.22131605374606      1.35196886311120
  H          -1.35051448185706     -2.36997991886259     -0.02193672701670
  H          -2.43339712301492     -0.48013569102615     -1.03860311215940
  O          -1.31101517074491      1.78604904174641     -1.76735690669693
  H           1.05183341600934     -2.46748658197117      0.36103575464359
  H           0.36626536181177      0.72025659371438     -1.50185945347845
  H           1.31318249885835     -1.03454302631473     -0.73512860515670
  H          -1.21841283583435      1.30482706159554      1.10516148127220
  H           0.22814286324476     -0.48874623165300      2.08243333615865
  H           0.28833277867922      2.05693158451821      0.36697309386366
  N           1.98654915526247      0.28230779680810      1.23100747645649
  H          -2.27125080494966      1.69950467844114     -1.69260234588891
  O           2.64311994182593     -0.39858133919884      1.99624991186507
  O           2.46099695726223      1.00868514727848      0.37512155501433
