23
Coordinates from ORCA-job NEB_reactant E -52.312369697680
  C           1.52821421536143      0.25995831000917      0.20415854144405
  C           1.17669465883235      0.90691091836106     -0.92873706909592
  O           2.25188792412805      0.81751885666076      1.16729723762311
  H           1.21110122379765     -0.77209462704707      0.31900505497707
  N           0.40366477371627      0.17939194995713     -1.89982249952071
  C           0.50343277929973      3.46409525504727      0.96697003302583
  C          -0.00108492990440      3.66960821007820     -0.23892431252032
  C           0.62060328754471      3.15031741357791     -1.49661695261984
  O           1.60746939131200      2.14657145413714     -1.28001453003246
  C          -0.13419494419674      3.95552678742520      2.22312462023362
  H           1.41881336273533      2.91368896280490      1.12643909451080
  H          -0.90878760715063      4.24086781553150     -0.37605927421768
  H           1.15976499020652      3.96079367421657     -1.99746938645363
  H          -0.15825862471833      2.79625670780303     -2.18137417854484
  C           2.52182964709926      0.01762754984340      2.30592919018748
  H           3.19429754876670      0.59993722300876      2.93228426709955
  H           3.00257532918918     -0.92129835006324      2.02257209329054
  H           1.60124351474683     -0.19353613215851      2.85604671508935
  O           0.17875896675011      0.72775146416978     -2.96001368391900
  O           0.00675666877428     -0.92988511355913     -1.59511678416832
  F          -1.29338432017617      4.59663728653241      2.02897932240515
  F          -0.39709372616940      2.93726994294374      3.06917910704843
  F           0.66359587005528      4.79898444072002      2.90176339415774
