23
Coordinates from ORCA-job NEB_reactant E -31.588267301490
  C           0.30113435662190     -1.01832225783291      0.43552763170113
  C           1.55843189800993     -1.08535906590950      0.86437601398812
  I          -0.46537493760892     -2.45203945727383     -0.89367827717356
  H          -0.37859120753171     -0.23257206095118      0.70065469423200
  C           2.08257231583553     -0.05797970983644      1.83538929886899
  C           1.88547342367166     -4.02128310619801      2.36668756251609
  C           3.08448254648586     -3.49222674606051      2.19195495655762
  C           3.45721441740772     -2.55607083642896      1.07470950681134
  O           2.35496821719577     -2.05853510374900      0.34997399607163
  C           1.52360383302486     -4.95234733978786      3.47174039455163
  H           1.08574181751065     -3.78378905017862      1.67873796920981
  H           3.90255929852712     -3.73054449367601      2.85964173399065
  H           4.04919242149682     -3.10043639414394      0.32846361137352
  H           4.08410446636323     -1.74326365410112      1.46502959270962
  C           1.88047469671186     -0.47720505851936      3.29282853311294
  H           1.54853224381480      0.87737091382622      1.65928080596714
  H           3.14137408286932      0.12566688553972      1.64206764543443
  H           0.82361120436696     -0.64029596115598      3.48999884389353
  H           2.24078021280555      0.30470421337561      3.95728631614352
  H           2.41388179877939     -1.39786920566959      3.51557388293479
  H           0.71907992200353     -4.52777328652141      4.07199029567433
  H           2.37735610192032     -5.15168022543224      4.11517941472207
  H           1.16289686971785     -5.89394899931507      3.05978557670867
