23
Coordinates from ORCA-job NEB_product E -31.602558802830
  C           2.24462284443636     -1.85149515434515      1.81948244990984
  C           0.95122816781870     -1.60066950790557      2.57491426567535
  I           1.88118172834317     -0.91117547568298     -0.11243593833140
  H           3.07567449560609     -1.29185350526147      2.25059461101186
  C           0.90015011679096     -0.27510484331689      3.29901044685572
  C           2.58467656544353     -3.32944473470576      1.66772018407209
  C           3.76112714302788     -3.52119798915921      0.75836770209926
  C           3.73017575257885     -4.22482477661633     -0.35698022570089
  O           0.05566455110169     -2.40364088204313      2.58556084153422
  C           2.89922113791477     -3.90237494653691      3.05438953020662
  H           1.71044660396922     -3.84708620646394      1.26015622318137
  H           4.67446956107430     -3.03548179186223      1.07946431623826
  H           2.83063003924639     -4.71386079077631     -0.69336841056551
  H           4.59796233607970     -4.33849655737471     -0.98350950906425
  C          -0.51375556255311      0.08804779442562      3.73182909096459
  H           1.32344868607544      0.50629227428409      2.66397292038599
  H           1.54964703915428     -0.37248942300684      4.17571198439566
  H          -1.14931785034359      0.22219867209152      2.86005151903075
  H          -0.51039258046160      1.00915256799945      4.30852771630010
  H          -0.93564857095082     -0.70870403462797      4.33911272910458
  H           3.74059623873470     -3.37856532730516      3.50597541940765
  H           3.15745488881261     -4.95452068844179      2.96382172021130
  H           2.03643666810047     -3.81480467336830      3.71033041307683
