17
Coordinates from ORCA-job P E -25.752778701410
  C          -1.48463942503038      0.53488460966943     -2.45251628975712
  C          -0.22184441538214     -1.55655700603342     -0.75349557562787
  C          -1.20125303845537     -1.85922408441751     -1.84690249649836
  C          -1.75830595686134     -0.93876324348980     -2.61537251707714
  C          -0.21369590512891      0.78437447123648     -1.62303762474345
  C          -0.26786822907576     -0.08511392388967     -0.38115945277198
  H          -1.41952056010639     -2.90557656006175     -2.00472632699979
  H          -2.46306671373060     -1.20680831773842     -3.38857322245472
  C          -2.62828863859885      1.13179095311138     -1.79352324874951
  H          -0.43936697635118     -2.17865137515858      0.11838004106024
  H          -1.38512639653009      1.00960367483148     -3.43664093037536
  H           0.78089877922963     -1.83070094994662     -1.10097090074921
  H          -0.14799949910821      1.84245315362452     -1.35965674688801
  H          -1.17064179103122      0.13801786462109      0.18976997888047
  H           0.66134028604678      0.52379161817822     -2.22333334262434
  I           1.37793204857686      0.40332297922783      0.95906077266031
  N          -3.52658356846282      1.58265613623534     -1.24974211728415
