17
Coordinates from ORCA-job R E -25.657854525000
  C          -1.22199001208694     -0.17036481836299     -2.82256455984824
  C          -0.01658174175148     -2.85971339549600     -2.19771383381754
  C          -1.25646215468812     -2.47379991210506     -1.90542455097375
  C          -1.78553506279259     -1.13971314487804     -2.08302336424926
  C          -0.99837188309488      2.15723985793825      0.12667128373406
  C          -0.44127907000478      1.00155934838120      0.40774963846105
  H          -1.94718108750701     -3.18686978172978     -1.47362319700879
  H          -2.71878174549438     -0.92531048893644     -1.57586593366418
  C          -1.78339960577408      1.11109342127236     -2.91190556843641
  H           0.30969292674721     -3.87072865916275     -2.02704405606034
  H          -0.30734784498080     -0.32390584335389     -3.37777228590465
  H           0.72215230304781     -2.18389442376258     -2.59355395323787
  H          -1.96819904062161      2.40702370586232      0.52443340829793
  H          -0.88716820800967      0.24918776670001      1.03533780293974
  H          -0.53616464854159      2.89344300590968     -0.50756016496617
  I           1.44490900989520      0.41871194116905     -0.32794695374461
  N          -2.23468213434229      2.16571142055465     -2.96706371152098
