17
Coordinates from ORCA-job NEB E -30.758469644220
  C           0.57001119918817     -0.98663438124570      0.73437633810836
  C          -0.79404243720588     -1.27816627866839      0.55567791689275
  N           0.95485217550110     -0.18990724704718      1.77958390932651
  H           1.30020615776449     -1.73158225064448      0.44264522415205
  Cl         -1.11504990194317     -2.67569691010953     -0.49743834140096
  C           0.52987911786897      0.23755772145613     -0.99639369113337
  C          -0.45872617471565      1.16566333940223     -0.66615464193428
  C          -1.78934812833551      0.75134235105826     -0.62899484726473
  O          -1.71185910850158     -0.45116021520802      0.73179427636153
  C           1.88835265176354      0.61904550739560     -0.95207231122288
  H           0.30240144833964     -0.56139175578397     -1.69239205651628
  H          -0.16770975240381      2.05986264856510     -0.13101164370657
  H          -2.13671419563071      0.03795034717829     -1.36390495599939
  H          -2.54324269907043      1.43015644240410     -0.26291915405772
  H           1.90742437738207      0.14162884984790      1.76390099160156
  H           0.27387904190503      0.50126687296442      2.06245413913518
  N           2.98968622809374      0.93006495843523     -0.87915115234176
