17
Coordinates from ORCA-job NEB_reactant E -30.778438829950
  C           1.28534366424994     -0.07999530330264      0.36434238272334
  C           1.32380983535529     -0.25803309755323     -0.95775011013657
  N           1.92762581168866      0.95446823681487      1.01913051755584
  H           0.68804616801420     -0.73408428847078      0.97854441094247
  Cl          0.34270704924891     -1.50446053143433     -1.70138377249579
  C           2.28147603095761      3.02746743387564     -4.26365424393282
  C           2.43952619096223      1.83537045689748     -3.69119889196746
  C           1.42765123896014      1.19517202054150     -2.80723069688383
  O           2.11400515667579      0.45922686567799     -1.79702116163695
  C           3.24953219965219      3.59020703215859     -5.11741054987119
  H           1.39245239740216      3.62591689211894     -4.10901563971279
  H           3.33777602024384      1.25574563342479     -3.85279654916498
  H           0.81241050401371      0.49922856330027     -3.40006788308534
  H           0.76075393686101      1.93794764926432     -2.34771907400560
  H           2.26294402297433      0.73285025114643      1.94386319214130
  H           2.61329524322777      1.43047719593605      0.45008015056993
  N           4.02864452951224      4.06669498960412     -5.81071208103955
