20
Coordinates from ORCA-job NEB_reactant E -32.743401404920
  C           2.47120053859347     -0.20064893308115      0.34314612652666
  C           3.29545472401639     -0.87714108906640      1.13319872241025
  C           1.34746000539742     -0.83287185151110     -0.41906868204629
  H           2.63046192257469      0.85565130681957      0.20020289244754
  Cl          4.57557203034138     -0.03582822658108      1.97528509558585
  C           1.69906902556698     -1.76371374999110      3.64038165352537
  C           2.83685150750010     -2.43003009008333      3.70285346052994
  C           3.67233289562899     -2.78557915543452      2.50890021178457
  O           3.23691347121170     -2.21724945601003      1.29128384912652
  Br          0.69119532907473     -1.33538725490886      5.17951373627622
  H           1.24940174977266     -1.40972990158319      2.72729162276032
  H           3.23882864255574     -2.76371255955754      4.64878782941753
  H           3.62957655269078     -3.86699598865702      2.33953232804873
  H           4.71672680709046     -2.51110608701814      2.70985305673371
  C           1.61482034581478     -0.78757901044273     -1.92305490456598
  H           0.42343580320926     -0.28884542263487     -0.20482137173407
  H           1.22853240690845     -1.86838580416986     -0.09961410600584
  H           1.73853570848591      0.23975227834272     -2.25752862224604
  H           0.78472817361623     -1.23149600642887     -2.46684778061214
  H           2.52080235994990     -1.33960299800251     -2.15949511796287
