20
Coordinates from ORCA-job NEB_product E -42.111574848550
  C           3.07145916117588      1.61218971578579     -0.25532929746800
  C           1.60475803761472      1.30960159344446     -0.31340671894428
  O           3.78528521565172      0.50034369247170      0.18831330883538
  H           3.45081808384711      1.89298475091166     -1.24608635189142
  C           0.70975818698320      2.36351462649404     -1.01632078119566
  C           3.30726643955561      2.85283437988833      0.67950261555679
  C           2.93592339437291      2.49595407354891      2.09446086243414
  C           1.94434720846882      3.05541825976670      2.76141778087105
  O           1.11067608181924      0.33571129795896      0.18803385497461
  N           4.69729811206575      3.22530976131084      0.50716174590148
  H           2.69412400142419      3.68874201252669      0.32626831490454
  H           3.56959351090352      1.74896892634036      2.55504760035532
  H           1.30913507606446      3.80222838973917      2.31437432131596
  H           1.72405212429711      2.78623370360188      3.78007901830238
  H           3.16795233589604     -0.09818924120800      0.63674449404968
  F          -0.33395592576071      1.79537195216686     -1.61632899851686
  F           0.22995980273996      3.25209036643783     -0.13291460793572
  F           1.37339873513973      3.06260411027926     -1.94634774517226
  H           5.29457885880069      2.43670456850787      0.73442647938260
  H           4.93497155894003      3.99998306002667      1.11550410424026
