20
Coordinates from ORCA-job NEB_reactant E -42.123479623670
  C           2.19026594642209      0.61870923059488     -0.09384254204553
  C           1.42027171370744      1.70924024681732     -0.02193230740746
  O           2.75161665419256     -0.00807511120784      0.97872500392675
  H           2.38018939902204      0.18950329985124     -1.06714042539291
  C           0.84878014757117      2.29314522339762     -1.28972536814933
  C           3.57390589249219      3.73027926568897      1.28084074544003
  C           3.17543834834148      2.78827758747821      2.13306045504488
  C           1.74741241274376      2.34340481046011      2.25597201305725
  O           1.01727513879885      2.45843807229056      1.03754977309094
  N           4.85487475128980      4.23288022665252      1.19285601945701
  H           2.86281324623533      4.21526026723168      0.62618685490231
  H           3.87764462206058      2.30126945040029      2.79242015146845
  H           1.18698609185190      2.98564814628536      2.94478352336708
  H           1.70705868766690      1.31367424197261      2.62307961033612
  H           3.35986713186835     -0.69027040427408      0.67742782207399
  F          -0.47573000531086      2.46327213541498     -1.22999037130510
  F           1.37426668892152      3.50147494147854     -1.56187673192128
  F           1.08564268632412      1.53735355341632     -2.37495817280780
  H           5.56748624748643      3.68193401383542      1.64702314519348
  H           5.12803419831433      4.59708080221532      0.29474080167113
