20
Coordinates from ORCA-job NEB E -48.947302744340
  C           0.89128386615022      0.39975371878344     -0.14796297912106
  C           0.06549274239885      0.39514419078813      0.99941288778127
  C           0.89993703565865      1.66119922323241     -0.99238792587207
  H           1.91875397019259      0.08624554920287      0.03636187119382
  C           0.52606977962301     -0.38234184881534      2.21739071309992
  C           0.11184327708922     -1.04850843293242     -1.08423229770030
  C          -1.24976700688090     -0.74041668578083     -1.14665830563195
  C          -1.95516718486747     -0.53849320334008      0.08914228046225
  O          -1.22095959544565      0.60555506758084      0.87742217782119
  I           1.07492883767857     -1.45611752189212     -2.93693390105493
  H           0.43488977742478     -1.80058330609234     -0.37593105156071
  H          -1.67114008258324     -0.33986366232139     -2.05424043466907
  H          -1.90182070435773     -1.36697555464196      0.79447437480912
  H          -2.96909753353185     -0.16738093076755     -0.02001007446383
  Cl         -0.61009721724549      2.04819824999022     -1.80829936521234
  Cl          1.25473287686967      3.02503393226096      0.13677835777917
  Cl          2.21680063944399      1.65077774312487     -2.18054517517162
  F           0.42557497311063     -1.73416291027463      2.00563765600222
  F           1.82823800796636     -0.15341913201452      2.48170422488041
  H          -0.07049645869422     -0.14364448609056      3.10887696662852
