17
Coordinates from ORCA-job NEB E -29.435039491420
  C           1.08310715770413     -0.33004198802393     -0.21441786022151
  C           0.51987887146850      0.07704821814726     -1.43204697211308
  C           0.63930471143630     -1.66593873931096      0.34297668105496
  H           2.15181500396266     -0.17113129159285     -0.09871313186300
  H           1.05590706797499      0.79270662054271     -2.05992950938149
  C           0.23524937772231      0.95056913295749      0.90070710589426
  C          -1.12395768296514      0.70600828730442      0.70132609964376
  C          -1.61230112961208      0.90495594938064     -0.62697539870659
  O          -0.76448954624613     -0.04170144954717     -1.60444014504761
  I           1.01338993506080      0.75299688961430      2.87596915906740
  H           0.66111782057877      1.84425411456546      0.46338399599042
  H          -1.63032455935386     -0.00655891387076      1.33494643803004
  H          -1.41143999812509      1.88123572868535     -1.06348217083272
  H          -2.63235822403559      0.58443748021029     -0.80570309819665
  F           1.46373251345830     -2.63965400083492     -0.16521721003960
  H          -0.37764136178768     -1.90829256608263      0.02001101528933
  H           0.72901004275881     -1.73089347214471      1.43160500143208
