17
Coordinates from ORCA-job NEB_reactant E -29.470557212980
  C           1.73210900535005      0.00579764331041     -0.01364263738852
  C           1.05250542849313      1.13337629495827      0.14805652069785
  C           2.09800583708601     -0.90340660290915      1.11337058316373
  H           2.05220823884533     -0.29387893558568     -0.99717605500421
  H           0.80239694531659      1.76952246830309     -0.69378138511562
  C          -0.34344107535506      4.07577582038052      3.52833291442767
  C          -0.57461205739566      3.02598340131814      2.76582445441384
  C           0.04922115228592      2.84062007449686      1.41724326219766
  O           0.60236670241275      1.54074094024367      1.36500574388944
  I          -1.24685380871068      4.35130039388920      5.40280086921731
  H           0.30798533781316      4.88584177535689      3.24631546336959
  H          -1.22416085664707      2.22284345993904      3.08083533575393
  H           0.82581803343195      3.59777263222706      1.23876552560870
  H          -0.72682101521280      2.94915444222013      0.64213687224688
  F           3.35963313278276     -1.42157908275722      0.92455927487579
  H           1.42094449729589     -1.76554225457365      1.17245176716450
  H           2.10289450220775     -0.36872247081759      2.06760149048146
