17
Coordinates from ORCA-job NEB_product E -37.940092591130
  C           3.20311319921999      1.21238536734060     -0.83734131722715
  C           1.71518034898035      0.99852236480087     -0.96033174938973
  F           3.64249690898487      0.46042704751254      0.21489607059988
  H           3.71614755651533      0.84821816742829     -1.73869258661994
  I           0.95311170979123      1.77258584309383     -2.83548948501689
  C           3.51837488257982      2.70717715952069     -0.60414044576130
  C           2.97789827447030      3.15947112848895      0.72430252971383
  C           2.03397849223728      4.07187455052496      0.84913788736162
  O           0.99038820177879      0.49193896592459     -0.18690454216446
  C           5.03090516647304      2.95160910128439     -0.68854996083334
  H           3.06979494373036      3.28398594846044     -1.41962479537076
  H           3.40661591312583      2.66388723716577      1.58364870751736
  H           1.59562301148392      4.56403450879678     -0.00439504052265
  H           1.66000732485215      4.36382193808342      1.81423841276509
  F           5.72071367201538      2.23546451202868      0.21784426581177
  F           5.49367319992994      2.57906176258535     -1.90743392980695
  H           5.27777719383142      4.01473439695983     -0.54186402105638
