17
Coordinates from ORCA-job NEB_reactant E -37.921054092890
  C           1.82262426871185      0.03550747274931     -0.32901408774823
  C           1.35137677989135      1.00568591304294     -1.10166449898693
  F           2.46652179263860      0.25754441657524      0.83979607437878
  H           1.74183827471315     -1.01094463373500     -0.56572006723423
  I           0.38088176045049      0.44122654039148     -2.88322345365269
  C           4.25358625393537      4.07109546708898     -0.41783041404853
  C           3.53810754774369      2.97702689810998     -0.22270549896338
  C           2.06396822501826      2.99048005795059      0.04089621828639
  O           1.33441918353027      2.33904123328315     -0.99744776241287
  C           5.72856989398186      4.06342717285911     -0.68405616284907
  H           3.82490806798933      5.06152776276302     -0.37209391147778
  H           4.00758460391196      2.00381123630311     -0.26703290737249
  H           1.67818734371008      4.01233788149112      0.03729135358265
  H           1.84943699984400      2.52641811516424      1.00992021656122
  F           6.38154599243632      4.82592087781568      0.23183660301433
  F           6.26151579144483      2.82383975039236     -0.59918021069804
  H           5.97912722004857      4.46825383775470     -1.68057149037913
