29
Coordinates from ORCA-job NEB E -38.793557121350
  C           0.25563605627893     -0.09438253668003      0.90950656375454
  C          -1.11310792494777     -0.36347887696314      0.93896886553410
  C           0.82442920517190      0.77906288756341      1.99901166547318
  H           0.91605531921814     -0.91091690791571      0.64878224298797
  C          -1.66846629814020     -1.58124420090725      0.23648205181328
  C           0.33294295945215      1.12602798017347     -0.70202965705970
  C          -0.98545213997616      1.50228841962786     -0.95538771266865
  C          -1.76955822271645      1.95149177464901      0.12855933876705
  O          -1.94384300860599      0.60855867677859      1.15071993967647
  C           1.09990954533982      0.38541449929269     -1.77214013681444
  H           0.93598430676203      1.83679493539029     -0.15227849095296
  H          -1.50662263859019      0.99497573778420     -1.75987587502271
  H          -2.80998229972453      2.18131452326816     -0.05985632410033
  H          -1.30346248834415      2.64629849695091      0.81851634818268
  F           2.10758719404290      1.18643817321118      1.71720225008319
  H           0.89105036816363      0.20304574803240      2.93133044657134
  H           0.22801683270538      1.67829437466861      2.17150054133492
  C          -0.95172313095953     -2.88764709197937      0.55336678827048
  H          -1.63020263395348     -1.38451420436789     -0.84328206686490
  H          -2.72237142083670     -1.65906746839642      0.51124540389504
  H           0.06400200454173     -2.89024425135305      0.16671105496761
  H          -1.48408846546358     -3.72111345492751      0.10106254600353
  H          -0.91289714922352     -3.04774731057163      1.62821180864869
  C           2.59511900714678      0.30577314256151     -1.49013170812879
  H           0.94621643742752      0.90715739545131     -2.72137575245869
  H           0.68751437658787     -0.61991096376473     -1.89187724917396
  H           3.02215495002482      1.30392165149971     -1.42950824741577
  H           3.10204881331902     -0.23731051619600     -2.28466560606329
  H           2.79311044529962     -0.19928063288059     -0.54876902923986
