29
Coordinates from ORCA-job NEB_product E -38.846903892500
  C           2.77162351188228      0.21100403982843     -2.17108031472573
  C           1.46871868431472     -0.50290219194779     -2.50848078056183
  C           2.55038145854620      0.90591236476677     -0.82331001682182
  H           3.56110222530849     -0.53220376399761     -2.02736118627763
  C           1.44974428846445     -1.98056969220735     -2.17480714930731
  C           3.25089258499545      1.23043294657210     -3.23150629307533
  C           2.25020332319911      2.32576406392771     -3.46055347944473
  C           2.42739122962135      3.57270875581127     -3.06518726978034
  O           0.50989562040827      0.05349978823759     -2.97729452158496
  C           3.57454244857800      0.53819911884932     -4.56512965730069
  H           4.17052421526579      1.67900824254466     -2.83775987123062
  H           1.35114839965571      2.03588415720010     -3.98395811651261
  H           1.69507989714390      4.33954216728612     -3.25322496172489
  H           3.31550840542329      3.88163937064575     -2.53634199790632
  F           3.75192687818046      1.32212186654612     -0.30518782217781
  H           2.11315549627031      0.22464356511480     -0.08501228824345
  H           1.92174618367477      1.79335508472963     -0.93868980075800
  C           2.03760320881775     -2.78643965827135     -3.33592898363221
  H           0.41399105298607     -2.28589169073553     -2.01761588314804
  H           2.02369582487886     -2.16964603949404     -1.26651053836966
  H           1.47114501876825     -2.60143612714418     -4.24546356035107
  H           1.99100706325551     -3.84890416042583     -3.11057084516304
  H           3.07541266203598     -2.51659465076616     -3.51324867290445
  C           4.89318563696657     -0.22611559311522     -4.54071166708447
  H           3.63582428454953      1.30689779940274     -5.33885651336960
  H           2.75524406896736     -0.13219504928309     -4.83296473331198
  H           5.71628841912958      0.44759275298336     -4.31296806349456
  H           5.08158870655844     -0.68007619428691     -5.51097911843394
  H           4.88822920215355     -1.01703127277140     -3.79429589330289
