29
Coordinates from ORCA-job NEB_reactant E -38.831777434310
  C           1.46813168261829     -0.05050564801216     -0.25244612709986
  C           1.24900494125344     -0.45338380088043     -1.50894964755899
  C           1.95579446418498      1.26415457329568      0.26746409098254
  H           1.29865712794414     -0.79258699476436      0.51293931094552
  C           0.74209288486483     -1.84949538432135     -1.78337375858456
  C           3.96572801388764      1.60591901455819     -4.54956112835177
  C           2.69846986417035      1.44732886448685     -4.20914811740773
  C           2.21212859091422      1.36393131646874     -2.79373527225592
  O           1.41151866354228      0.19294294588945     -2.68263220409150
  C           4.46599021817249      1.69380265665810     -5.95533416525305
  H           4.72523957686209      1.67992829620544     -3.78120058309890
  H           1.92539910878772      1.35868151734213     -4.95973495230554
  H           1.59802184062689      2.24844309047095     -2.56811081716790
  H           3.06073608055719      1.32102113642533     -2.10666309899995
  F           3.34539945260094      1.35237397752163      0.23727381735118
  H           1.68031026936335      1.38048079907979      1.31996567204910
  H           1.58909438718715      2.12253712600592     -0.30087148618081
  C           1.90521518485968     -2.77051495243896     -2.15223693449388
  H           0.04418205013831     -1.79939347370213     -2.62021190959868
  H           0.21957876884800     -2.23754048408162     -0.90990830559121
  H           2.42652970442004     -2.38230448982239     -3.02364631639116
  H           1.53999424150037     -3.76877568781735     -2.38053499816214
  H           2.61074843245778     -2.83673761720317     -1.32733740128655
  C           5.48432585352298      0.59091666861692     -6.24376878367307
  H           4.94483818265710      2.66613629982950     -6.10320939659624
  H           3.62991014510176      1.61717155649665     -6.65245263358700
  H           6.33057402282181      0.66610440549249     -5.56469914299140
  H           5.85210386209746      0.66995570714871     -7.26402445015719
  H           5.02648238403672     -0.38709141894855     -6.11515126044332
