22
Coordinates from ORCA-job NEB E -31.798087608140
  C           0.65454804503374      0.28288861650959     -0.65280144278758
  C          -0.73497750530821      0.44024792702752     -0.49868848452507
  I           1.22974642490349     -0.46355067601876     -2.78549787145300
  H           1.21920006749021      1.20690124564909     -0.63122771622833
  C          -1.39895522695284      1.76822764050266     -0.32442384990751
  C           1.23521652450791     -0.77264902421088      0.38454342257823
  C           0.41543395487284     -1.99527911079593      0.26050663766267
  C          -0.96948979598226     -1.89811143052201     -0.25316044623479
  O          -1.54634694375414     -0.62278327902060     -0.36712019305194
  N           2.65467863340598     -0.93452795893273      0.18482828316433
  H           1.11502436235942     -0.26700626347308      1.35415504238639
  H           0.94012370133489     -2.88041129743761     -0.07812725508391
  H          -1.67289014754372     -2.45684069681358      0.37698551165401
  H          -1.00692204390440     -2.36516829480346     -1.25078076262010
  C          -1.19476022083885      2.32023702557628      1.09163273468959
  H          -2.46575384060205      1.64226511480820     -0.51367312941022
  H          -0.99417887354866      2.47621947229654     -1.05031905621545
  H          -1.60615468417772      1.63313621301334      1.82686412008250
  H          -1.69636234502799      3.27901087509744      1.19313782261986
  H          -0.13637273598015      2.45894872295763      1.29972496286547
  H           2.84960234947490     -1.56732081366506     -0.58363064298038
  H           3.10959030023761     -1.28443400774461      1.01707231279524
