22
Coordinates from ORCA-job NEB_product E -31.855383618380
  C           3.05652554117194     -0.27779471942956      2.07556886928345
  C           1.57918241191304      0.05031404372219      2.08284404294556
  I           3.62033050923476     -0.11840406973179     -0.02148074084901
  H           3.64370469450059      0.49906650199968      2.56548506270311
  C           1.26274806762005      1.52820835787089      2.06134707725948
  C           3.40763779488550     -1.63044192880154      2.68722509318789
  C           2.78577205004234     -2.80030215935912      1.97618617687363
  C           2.10116498590617     -3.75206654954224      2.58018626736946
  O           0.73033035113027     -0.80094775546686      2.13263617467354
  N           4.86103857110017     -1.72814873686819      2.77824108036081
  H           3.02525061306762     -1.59749081606540      3.71784542727375
  H           2.99181571224567     -2.86154295688879      0.91488172238236
  H           1.88588936908689     -3.71508753199068      3.63560285609816
  H           1.70950701726093     -4.59728253134443      2.04128008215024
  C           1.21794522295381      2.03917414058995      3.50426446060417
  H           0.28519999750887      1.66964257109185      1.59800328179535
  H           2.01290052993392      2.08163511687859      1.49515370842081
  H           0.47069925335493      1.49144146506160      4.07367743145620
  H           0.95764044124778      3.09445551778861      3.51491027398100
  H           2.18302944879977      1.91678810733377      3.99219987584380
  H           5.26324685904154     -1.79916614187563      1.84689824454640
  H           5.12374055799343     -2.56464992497289      3.28684353163983
