22
Coordinates from ORCA-job NEB_reactant E -31.851858902500
  C           2.40710050613320      0.05411240298149      0.66678159183017
  C           1.58109336951008     -0.12795826380709      1.69262934165590
  I           3.51410099634578     -1.29561931817573     -0.52099941216423
  H           2.57362954179993      1.05853063293640      0.32165218174002
  C           0.94077653998112      1.09889801497619      2.31356361537517
  C           3.75001965515826     -1.93027925249128      3.34147886846621
  C           3.09890174599246     -2.71390618340528      2.48656462105306
  C           1.66493839800753     -2.51721121311209      2.09050416610627
  O           1.15541281540088     -1.22307835561576      2.35645601759017
  N           5.09634662839345     -2.02439106157531      3.63282296309143
  H           3.25552745045851     -1.09018950896535      3.80928423758340
  H           3.59306739757733     -3.55309764442495      2.01984384248002
  H           1.01351164658088     -3.17389511077789      2.68305544424692
  H           1.52090982900885     -2.77871484862814      1.03556119066493
  C           1.67901739644298      1.51631338962066      3.58421845668084
  H          -0.09073753943730      0.84542130442568      2.56314680486300
  H           0.93658863278306      1.92176424070152      1.59951412732224
  H           1.63843342303157      0.71802889990824      4.32110360865320
  H           1.21694668748927      2.40283763111452      4.01192002616376
  H           2.72064336494762      1.73939983315116      3.36299339503830
  H           5.53327219645256     -2.88654955348810      3.34274921620250
  H           5.37239931794197     -1.71941603534890      4.55225569535673
