19
Coordinates from ORCA-job NEB E -40.781730479610
  C           0.95915203485780      0.23566939150631     -0.27320664289883
  C           0.25469329486478      0.76029566537105      0.84471143512430
  C           0.88003958230220      1.00599525054344     -1.55756444914018
  H           1.98859928702023     -0.05489641550576     -0.07637423276938
  N           0.78028184830276      0.56139278259454      2.10001074721268
  C          -0.02075859462813     -1.47554336496537     -0.33535582021185
  C          -1.36541579976993     -1.12866422145613     -0.43501864500385
  C          -1.90592901254149     -0.36060681883247      0.62884326468049
  O          -0.99974401521819      1.03190143720489      0.75895392605131
  I           0.78880658851048     -2.75793986776796     -1.82019945518051
  H           0.35461370263549     -1.79003345117154      0.63131202614568
  H          -1.83438311608723     -1.08073769204398     -1.40394377019397
  H          -1.73997741169304     -0.73908380838495      1.63424391728056
  H          -2.90439977567457      0.03088929923936      0.48345444202180
  Cl          1.92888242464482      0.32259868116428     -2.81160168188440
  Cl         -0.73368141091148      1.23504079710446     -2.22086373771951
  Cl          1.53942555853034      2.67460703401657     -1.22028958035542
  H           0.24967029739290      0.95208074124955      2.86285438154167
  H           1.78012451746225      0.57703456013372      2.21003387529942
