19
Coordinates from ORCA-job NEB_reactant E -40.815095629800
  C           1.65979371649145      0.05900653993008     -0.04321368578059
  C           1.19275432475206     -0.98589116672794      0.67333426801739
  C           1.96092428686725     -0.04757023059006     -1.47896473839916
  H           1.83605624044010      1.00783454400339      0.42937157671128
  N           0.78319307061770     -0.86550437143178      1.98232046807285
  C          -0.08493761486511     -5.35826167616055     -0.48582553847681
  C          -0.23123154118488     -4.04832404915242     -0.50247486286236
  C           0.20400611931312     -3.16212514173845      0.62478892096192
  O           1.07088591896733     -2.18252615332881      0.07231081811911
  I          -0.71386862698036     -6.60136093641845     -2.05350630867280
  H           0.34659581883620     -5.89982125545456      0.33954697853365
  H          -0.65088012502059     -3.52965052435540     -1.35144238843150
  H           0.72472235678669     -3.74591515922284      1.39674570306716
  H          -0.67428219990582     -2.67524359797616      1.06931205333596
  Cl          0.54587777417317     -0.61170193217348     -2.42376090493513
  Cl          2.45630467390116      1.51991764217530     -2.13086966531096
  Cl          3.28712587586631     -1.22125529111918     -1.80520513978723
  H           0.94602799601556     -1.66147822068356      2.58029735956358
  H           1.01343193492865      0.01617098042488      2.41133508627366
