19
Coordinates from ORCA-job NEB_product E -40.841603685610
  C           1.66533275526168     -1.97772531123691     -0.17975118526533
  C           1.50024408669686     -1.53796677491055      1.30350239256241
  C           1.27299163285000     -0.81697694041515     -1.09002537845667
  H           2.72568040358383     -2.18821114603875     -0.35276140945585
  N           2.53390805434605     -0.82269006619439      1.78043202192787
  C           0.85274165489185     -3.27072572689107     -0.36497012006051
  C          -0.58259403193404     -3.11121346234219     -0.71888186381658
  C          -1.55778135261658     -3.46850375217557      0.09710042341286
  O           0.55565805097179     -1.86954125632638      1.97463730357027
  I           1.81189953328882     -4.58176722074590     -1.82763604227207
  H           0.92951822407066     -3.82888383616211      0.56945154482102
  H          -0.79999728660736     -2.71866334034311     -1.70176534339974
  H          -1.35911938641130     -3.86130413694845      1.07989754076027
  H          -2.59131881602541     -3.34993077418175     -0.17772786371533
  Cl          1.18130132722309     -1.28194018064642     -2.80349592531928
  Cl         -0.28067854030166     -0.09746398135819     -0.59733886422810
  Cl          2.51633307863232      0.47410471448701     -0.99469875551353
  H           2.46136885234446     -0.46640853241603      2.72049172983241
  H           3.26161175973495     -0.46108827515408      1.18763979461588
