21
Coordinates from ORCA-job NEB E -37.600210228600
  C           0.43482229040081     -0.56757140083612     -0.76310467408771
  C          -0.87583537684563     -0.08952445006609     -0.86965909156850
  C           0.59649359669380     -1.92394514586249     -0.12422483028909
  H           1.12325815055209     -0.36181398396371     -1.57368044922083
  C          -1.22113586957380      0.98137810539153     -1.88548887474698
  C           1.07367029148116      0.74020001000154      0.62205314248395
  C           0.19739664831747      0.39142556024787      1.65984551761536
  C          -1.16628338472464      0.65908583614510      1.51740870225341
  O          -1.69967266286805     -0.26873984745434      0.09623234433921
  O           2.40699393220544      0.56504746548072      0.68673208595604
  H           0.86073833198763      1.63755400948566      0.04854814092160
  H           0.51229224159314     -0.38350548418035      2.34612138990193
  H          -1.46027387200308      1.61851029976508      1.11211066804585
  H          -1.84204429067893      0.27438500905319      2.26612881978898
  F           1.77683659090408     -2.06766784491533      0.57293580036073
  H           0.61099094449376     -2.69704539150127     -0.90143826588290
  H          -0.21545261677977     -2.11722246277031      0.58249666636671
  F          -0.22213243931109      1.16676376143770     -2.80198252403945
  H          -1.39052868277498      1.94543560780863     -1.38644616994254
  H          -2.12597682926574      0.70177311720184     -2.43616982091253
  H           2.62584300619634     -0.20452277046885      1.23158142265677
