21
Coordinates from ORCA-job NEB_reactant E -37.626712587110
  C           1.68893031000235      0.24481842607616      0.12785447810274
  C           1.42844338687650      1.54866547421780      0.21932324183974
  C           1.90070145932706     -0.78539214410161      1.18785644224326
  H           1.78008650877856     -0.14758435952343     -0.87471871974690
  C           1.19653436696452      2.36958458448822     -1.03312414889914
  C           4.27656017056063      2.96027472498801      2.55940043258043
  C           3.39987628354860      1.97806876986573      2.39333039221995
  C           1.92437759551736      2.17845213154713      2.52940046712525
  O           1.26332581379601      2.38438374937053      1.27799973542818
  O           5.61240089780630      2.85341518506006      2.42827616466502
  H           3.98612135728845      3.96279653594424      2.84115425877884
  H           3.74581900457077      0.99722291263200      2.10257078070800
  H           1.71724718852647      3.10550883256239      3.07055205383058
  H           1.45655801002507      1.34988762856843      3.07334292334818
  F           3.23297209269469     -1.17593076335393      1.22791469788388
  H           1.33428942005242     -1.69194441368178      0.94734089187606
  H           1.64952496731080     -0.45576310154240      2.19659801218768
  F           0.98682027302522      1.59750647603855     -2.14030337259746
  H           2.06890681928018      3.00134102883464     -1.23824294570490
  H           0.31301606954800      3.00161976624453     -0.89652986706682
  H           5.84888800450003      1.95216855576474      2.16990408119743
