17
Coordinates from ORCA-job NEB_product E -41.593368410380
  C           3.15984133691652      1.69903201179815      0.32752421615902
  C           1.64664024738479      1.61542410425783      0.14595483531683
  F           3.67023805121773      0.43446203036192      0.21068140741512
  H           3.63083355132479      2.30851294186823     -0.45151942453890
  C           1.04477860125059      2.71692788154759     -0.74187219991123
  C           3.43476954625580      2.24908903589258      1.73041849574298
  C           2.91475224334022      1.35298314539820      2.79500973092614
  C           2.13613720186617      1.77473906682562      3.77489031423651
  O           0.96792618583514      0.76416408520357      0.63033501916776
  I           5.59284045926355      2.49464549704225      1.96249876873922
  H           3.02694018963537      3.25610788450955      1.81215810771062
  H           3.21699674294642      0.31814407823064      2.71959874744787
  H           1.83334329024943      2.80610465347492      3.86039303669810
  H           1.77117631384801      1.10199263063453      4.53010548986154
  Cl          1.67540900153416      4.31500061899154     -0.30724740156950
  Cl          1.55131987515588      2.30816517649184     -2.40454844082262
  Cl         -0.71514283802459      2.72030515747104     -0.62798070257945
