17
Coordinates from ORCA-job NEB_reactant E -41.592303939220
  C           2.45285483985691      0.92047042878296     -0.03823219267540
  C           1.66186385463783      1.91079379210150      0.37450053098583
  F           3.06428287317977      0.05375917054819      0.78679522884659
  H           2.67953950807695      0.72367943024953     -1.07167741092471
  C           1.02302449751136      2.86029915175618     -0.60636570905929
  C           3.98541423081843      2.87231781726894      2.31886277406085
  C           3.33749705848939      1.90949606055468      2.94385423169668
  C           1.87767535991761      1.62001130000234      2.74370185570224
  O           1.29680811673911      2.27254492209221      1.62738023861739
  I           6.02923527329908      3.24835002751326      2.61055545880496
  H           3.52799456362020      3.54393079136537      1.61249001234243
  H           3.82848123412418      1.25784917614241      3.65075098324372
  H           1.30900148289617      2.00297143055729      3.59850474249286
  H           1.72052864259004      0.53680890023611      2.68737239034901
  Cl          1.73063409552168      4.48217159654465     -0.36356773530084
  Cl          1.24924638926358      2.40534290506616     -2.29347083079374
  Cl         -0.72358202054231      2.95460309921824     -0.27685456838857
