16
Coordinates from ORCA-job P E -25.555357285310
  C          -1.38080412683243      0.62764332340263     -2.17578269534511
  C          -0.36319762635412     -1.66721145044690     -0.59673366290081
  C          -1.22821605293039     -1.81157488907559     -1.80990243440106
  C          -1.68093366533173     -0.79010796064537     -2.51886415629334
  C          -0.84943414670011      0.78555172337063     -0.75851342189474
  C           0.21708296382743     -0.26381287721981     -0.47904312353668
  H          -1.46938213241942     -2.82319981678760     -2.10135076771539
  H          -2.28370737654503     -0.94956481739750     -3.40102719581346
  Br         -3.02532203736888      1.71732570392970     -2.36369001561659
  H          -0.95821982375631     -1.87942098968304      0.29847684237860
  H          -0.69296686670578      1.06042496365443     -2.90777223771894
  H           0.44236821372297     -2.40408101639823     -0.63074894365494
  H          -1.66274847288287      0.63455028083018     -0.04364882778945
  H           0.66478036091365     -0.10581120648736      0.50492599081767
  H          -0.44895251826558      1.79078005703051     -0.61482552411329
  Cl          1.56385330762859     -0.07543102807670     -1.65484982640246
