16
Coordinates from ORCA-job R E -25.459151420330
  C          -1.25225233764807     -0.11399735310696     -2.76221608798778
  C           0.03588569509500     -2.71324570314869     -1.95912858194157
  C          -1.25852625538993     -2.41945300284235     -1.88774410141741
  C          -1.86030094984474     -1.12632924814637     -2.15183016759670
  C          -0.76834436233770      2.01641713248203      0.11361653654777
  C          -0.31118381952833      0.78971500284753      0.25785259621656
  H          -1.96015059168571     -3.18836674470660     -1.59080380923511
  H          -2.88875421780497     -1.00930814778426     -1.83656732842412
  Br         -2.10959554955622      1.53859354647452     -3.06359044188477
  H           0.39391080575665     -3.70439393152925     -1.74260355057630
  H          -0.24135814541591     -0.13720871090246     -3.13211367884928
  H           0.78342654555921     -1.98314806095165     -2.21498408300532
  H          -1.74939963194090      2.27931477778990      0.46739225835424
  H          -0.86058889508122     -0.01485111968690      0.72138617702245
  H          -0.19423804746155      2.79304858805758     -0.36030789445128
  Cl          1.24715975728440      0.30782297515393     -0.29191784277138
