21
Coordinates from ORCA-job NEB E -33.191391938320
  C          -0.64515868589013     -1.35207948326132     -0.00188951208800
  C          -1.61375797459589     -1.03814846889859     -0.94720417581913
  O          -1.05487010553162     -1.60462355681055      1.27967208535352
  H           0.21649156967032     -1.91229073744255     -0.34766595975077
  Cl         -0.95621779091981     -1.12611462032978     -2.61138279591574
  C           0.11412394764312      0.60417316781057      0.21442309034023
  C          -0.75754789361389      1.41918986549500     -0.48859317848293
  C          -2.13234137746386      1.34124357629133     -0.21502154123798
  O          -2.58271602046656     -0.26598926090498     -0.77515010554800
  C           1.56549908680520      0.53261377991130     -0.18154169145246
  H          -0.08443378575590      0.49328651145017      1.27436806748101
  H          -0.45505987702423      1.76436749277974     -1.46937564357752
  H          -2.81525599720538      1.93895472906566     -0.80052451853926
  H          -2.43552544563025      1.19115005998357      0.81313318936268
  H          -0.32381103483982     -1.96470200169339      1.79331632938530
  C           2.42345895265335     -0.27389520978430      0.78686940094721
  H           1.95255801039021      1.55512321536751     -0.22210508010509
  H           1.64708783734672      0.12033222720755     -1.18985116083417
  H           2.32932398419059      0.11745033898127      1.79798307823304
  H           3.46967015905674     -0.21635378309479      0.49669636303608
  H           2.13848244118106     -1.32368784212340      0.79384375921200
