21
Coordinates from ORCA-job NEB_reactant E -33.224025476800
  C           2.11269590296873      0.36377010726505      0.03145621663104
  C           1.62343333198233      1.04287903955052     -1.00519976700702
  O           2.13128771876728      0.85027267529175      1.31752813638870
  H           2.49989276848759     -0.63028253436052     -0.13141635049271
  Cl          1.61018146859864      0.24949581489698     -2.54516597988940
  C           4.01532926788726      3.40185080693226      0.51235354333726
  C           3.10466378926486      3.47176639683822     -0.44317985367391
  C           1.63621413093740      3.27814313557195     -0.21995950634126
  O           1.09710993738461      2.28020404634003     -1.08985890401065
  C           5.48652712743896      3.55573937188058      0.30137479890777
  H           3.70731380660960      3.20649845184444      1.53172626176076
  H           3.39096898628042      3.64986652698343     -1.47143619818781
  H           1.07877985185273      4.18007351785663     -0.49004516253007
  H           1.43357734329792      3.01926561221843      0.82350811026301
  H           2.67642009793231      0.27557618079947      1.86327257152476
  C           6.22630945920619      2.27785244188151      0.69852146047195
  H           5.85345975664787      4.38422892095554      0.91362628836064
  H           5.69020535782048      3.78874895511013     -0.74493178461417
  H           6.04496017956119      2.04200294570950      1.74499891143864
  H           7.29708200545092      2.39710060608411      0.55256719791825
  H           5.88508771162272      1.44254698035001      0.09096000974424
