21
Coordinates from ORCA-job NEB_product E -33.246580931130
  C           3.04567719634537      1.12630235507522      0.22406761794654
  C           2.60647561917863      0.93434970748876     -1.20657602044724
  O           1.96432319580985      0.88655504346643      1.07815928120881
  H           3.81190115329324      0.39537903571202      0.49068660212239
  Cl          3.90247533533710      0.41491032846467     -2.28172621616537
  C           3.60311670997907      2.57051526861551      0.43878721651620
  C           2.59120797028283      3.56318546013039     -0.05720010198766
  C           1.68076638621862      4.13312592035358      0.71095238171572
  O           1.51178997179843      1.10603167915794     -1.63072651961229
  C           4.97191766845696      2.82135085265812     -0.19902431183144
  H           3.69463845815254      2.66569254058361      1.52666418697184
  H           2.62693518553470      3.77645207742949     -1.11738944646223
  H           0.95765579972480      4.82690839555830      0.31798522586450
  H           1.62725035467497      3.93498851406508      1.76963383298477
  H           1.22699395957470      1.45310706588237      0.81151301117205
  C           6.07515417601014      1.92057639599197      0.34380721411934
  H           5.23250472942931      3.86275350153574      0.00618664693285
  H           4.90722013186266      2.70748069760732     -1.28182549675750
  H           6.08992398597015      1.94312032763452      1.43114997256133
  H           7.04143980552347      2.26245004352215     -0.01834839939787
  H           5.94213220684245      0.89276478906681      0.01722332254528
