17
Coordinates from ORCA-job NEB E -33.934759702840
  C           0.96306399202565      0.77143861723303      0.58473472077504
  C          -0.44042403545691      0.79907632492320      0.62085287271639
  Br          1.84758070994141      2.14225594404343     -0.41821172727995
  H           1.50853522090374      0.56469089136510      1.49853060901544
  C          -1.16311925255517      0.10323165802104      1.75805491761349
  C           1.19853814002574     -0.80646405081748     -0.48855038448545
  C           0.48057059212080     -0.50402473578166     -1.64937034421950
  C          -0.91046062332842     -0.28722945341320     -1.53449668610217
  O          -1.09195380392225      0.99596436968792     -0.47472451679162
  F           2.53406235596034     -0.91308384750536     -0.59204537473415
  H           0.82881077867005     -1.53743375516965      0.22830009683558
  H           1.02439352261362     -0.02232149427101     -2.44903920062205
  H          -1.48630469424661     -1.03245321407230     -0.99320547721410
  H          -1.41820280300450      0.08571525822476     -2.41350014498008
  F          -0.29524595203696     -0.55606366398505      2.58797625701695
  H          -1.87271609064785     -0.63621126036825      1.36565716365846
  H          -1.70712805706266      0.83291241188548      2.36903721879773
