17
Coordinates from ORCA-job NEB_reactant E -33.968647521840
  C           1.78956784966075     -0.35178162535135     -0.02618868435973
  C           1.48056799918302     -1.60935850673124      0.27691386452083
  Br          2.39271100842666      0.38676961918916     -1.66640585631773
  H           1.68643395974462      0.40833127665071      0.72925719716096
  C           0.99223739897241     -1.92951301354550      1.67785975445679
  C           4.32916237654531     -3.98698805545385     -1.69744648294546
  C           3.60422297399948     -2.89119839397668     -1.58100911322690
  C           2.11057623799954     -2.90320793702026     -1.69070862212888
  O           1.47940309475069     -2.76999920859680     -0.42001193211576
  F           5.66207425983755     -3.96771504105704     -1.58415996371386
  H           3.95410771155715     -4.97998528943666     -1.90225779877393
  H           4.08768494519364     -1.94856283851537     -1.37288149165020
  H           1.76574980627902     -3.87752519871941     -2.04551301740195
  H           1.76596352849696     -2.13072218207701     -2.38333535753389
  F           0.76111403942715     -0.81077423048195      2.42234372577050
  H           1.74279718593269     -2.52733774982539      2.20765375759954
  H           0.05332562399338     -2.49003162505133      1.61829002065966
