17
Coordinates from ORCA-job NEB_product E -33.972992445570
  C           3.19175411289705     -2.06472815698432      0.24560673415179
  C           1.74538209091592     -2.40574172592965      0.58700814167907
  Br          3.48876177243257     -0.13796073709146      0.10140077599054
  H           3.82087436229031     -2.38660951768104      1.08383787931116
  C           1.00265545621654     -1.36988912784732      1.40723947080362
  C           3.65430787102301     -2.80138242334971     -1.02043612516337
  C           3.15423588508701     -2.15548148602901     -2.27814597046065
  C           2.01679386928317     -2.48732062408114     -2.85744227608811
  O           1.25950623894758     -3.44757306531886      0.24932217407135
  F           5.03095104937558     -2.83652274023295     -1.02220861217578
  H           3.31466802849069     -3.84336276590323     -0.94302971719491
  H           3.79458159213851     -1.37742121909363     -2.66903935295167
  H           1.38445316843909     -3.26656995814772     -2.46439748735462
  H           1.67287825421485     -1.98482853502602     -3.74421117902581
  F          -0.14738624607834     -1.89756756888048      1.90875025834777
  H           0.72505997393513     -0.51872241043974      0.77254595586741
  H           1.60682252039132     -1.01721793796371      2.25109933019221
