17
Coordinates from ORCA-job NEB E -35.932709112920
  C           0.93464809212780      0.48215698802059     -0.41214033527424
  C          -0.07849717153857      1.40187404834970     -0.15870628680667
  C           0.92252143118935     -0.29286661698945     -1.69370290669628
  H           1.94944757813360      0.79741300644900     -0.17708720794784
  I           0.44189074412982      3.03765526258831      1.15509138526075
  C           0.48176390673882     -0.78977992322743      1.07766419160058
  C          -0.86308635991755     -1.02211024952776      0.87439413407040
  C          -1.76498659193905      0.09262649068113      0.95122397211263
  O          -1.31675905256955      1.08442327478115     -0.21077027691021
  H           1.17628080372221     -1.60672300754287      0.94820394600217
  H           0.78108637468027     -0.08445136555813      1.84240760965937
  H          -1.18104701086084     -1.89727091091180      0.32838557563805
  H          -1.66406238787427      0.72840961996276      1.83075530774987
  H          -2.80052308769459     -0.10856578960053      0.70263844202317
  Br          1.64858353454472      0.91319717912421     -3.10230274384011
  Br          2.12887521841958     -1.83172881000942     -1.62579960629506
  Br         -0.79613602129176     -0.90425919658946     -2.33025520034660
