17
Coordinates from ORCA-job NEB_reactant E -35.960790525230
  C           1.57437489759360      0.13285030245663     -0.08865529745568
  C           0.93677874806038     -0.01358626548838      1.08270093932626
  C           1.96964148711458     -1.06026325003507     -0.85760099571201
  H           1.81311789104952      1.10484252595361     -0.48386224158836
  I           0.37841393583141      1.71776979022986      2.17456381608521
  C           0.10112738806209     -3.61762589981344      3.96994151886998
  C          -0.21481287155205     -2.93578635245539      2.88694362742495
  C          -0.03163212641968     -1.45559577187409      2.75276672105220
  O           0.66921262103741     -1.22111294660632      1.53926663152722
  H          -0.05611576916453     -4.67971792310791      4.03155079577476
  H           0.51864155264391     -3.14251383505690      4.84245704284930
  H          -0.62492548777227     -3.41701901000575      2.01081748030288
  H           0.53863224720773     -1.05152439308030      3.59798325675869
  H          -1.01151306089765     -0.95830506318683      2.70782972806413
  Br          2.83942302922850     -0.57419907418603     -2.52261734138255
  Br          3.21457879452660     -2.21495852512940      0.16801486883810
  Br          0.41485672345045     -2.19785430861426     -1.29980055073509
