20
Coordinates from ORCA-job NEB E -41.080494926100
  C           1.07645406564552      0.33404852379441     -0.54637809274520
  C           0.36452052838313      1.39392368165277     -1.10572006626024
  C           1.09154552869208     -0.97381153114783     -1.29411413087130
  H           2.02103273483672      0.57365404029708     -0.06874325912113
  I           0.87541653218884      3.38213485567196     -0.40940142811641
  C          -0.17618495405217      0.04278599701046      0.96003530303784
  C          -1.40754127858369     -0.12493125557569      0.33157046433578
  C          -1.91650083999728      0.97424002018306     -0.42160158813532
  O          -0.81286262977233      1.24898211687399     -1.56834507422880
  C           0.36540271528415     -1.10387443849318      1.77313038722423
  H           0.02880037174491      0.98251240866422      1.46621002640922
  H          -1.72744938050237     -1.12368476946816      0.07429048579536
  H          -1.92916327695558      1.93970276021411      0.08179307558347
  H          -2.81756114987947      0.79334117355500     -0.99444577590167
  H           1.40397373679266     -1.79380588440215     -0.65507417351556
  H           1.81419261689861     -0.89643057855645     -2.10635691851129
  H           0.11740018130850     -1.19528352893357     -1.72219896173169
  F           0.04557233257989     -2.31062335289511      1.28809839270454
  F           1.70193490109888     -1.08102123898715      1.89040196920521
  F          -0.11898273571101     -1.06185899945777      3.02684936484295
