20
Coordinates from ORCA-job NEB_reactant E -41.101664261430
  C           1.79693807716028      0.05060816002371      0.03244485621061
  C           1.53966880791126      0.43546555337960      1.27215415337808
  C           1.79707248347869     -1.37557524683400     -0.40760451957285
  H           2.03618240002732      0.79109294310863     -0.71429167708415
  I           1.57353738427871      2.53612882391839      1.74299454022089
  C          -0.45560415918632     -1.04793117176349      5.33088761025449
  C           0.18337418401780     -1.22225201923463      4.18608500164448
  C           0.15864301655121     -0.24545500239420      3.05916615547080
  O           1.34983940062671     -0.39722060781874      2.30925325972638
  C          -0.44435352488990     -2.06526479541102      6.42709198372443
  H          -1.04301151914307     -0.17100154940245      5.55758704392306
  H           0.77051226066594     -2.11204296295885      4.00413810783643
  H           0.06940915829048      0.78397697709832      3.43332110508585
  H          -0.71409833312268     -0.45172270288589      2.41854795422103
  H           1.50307295941049     -2.03495084861399      0.40409864462541
  H           2.79441260090723     -1.65622305124170     -0.74390239227659
  H           1.11422918470743     -1.50456148497062     -1.24646954103826
  F           0.29302710322323     -3.14646471408741      6.14548188781827
  F           0.03477467632566     -1.55994530835652      7.57610304633744
  F          -1.68432616124046     -2.51036099155515      6.70431277949422
