20
Coordinates from ORCA-job NEB_product E -41.127133270040
  C           1.48919033788822     -0.65071944881816      2.09976059755282
  C           0.89793970079810      0.40042681717965      1.20185897474782
  C           1.40169168785032     -2.00761750998635      1.40315831319847
  H           2.54133623780883     -0.40055835444503      2.28072420489843
  I           1.39723384738872      2.42731297885297      1.82691902765890
  C           0.74751242892547     -0.58248183387641      3.45850912377203
  C          -0.74419528861665     -0.72293775709060      3.31253998053237
  C          -1.58987135569180      0.25274296447778      3.58173304888804
  O           0.23227673591289      0.25080004312014      0.24261073350665
  C           1.27069413467081     -1.63984154454646      4.42930233331134
  H           0.97509098872399      0.38053406128480      3.93204376875168
  H          -1.09462630348749     -1.68658514914521      2.97229977184274
  H          -1.26075419823067      1.21745748189032      3.93231682078666
  H          -2.65081538115151      0.12480926123127      3.46021776234742
  H           0.36831605593206     -2.30161363619197      1.24251459177682
  H           1.90264154844131     -2.77247921097827      1.98919864323188
  H           1.88988713068855     -1.94882191376372      0.43281436529827
  F           0.83274846534230     -2.87803383280818      4.17044352998884
  F           2.61180982083277     -1.70523400029640      4.43912771726422
  F           0.89319340597377     -1.36075941609017      5.68390669064461
