19
Coordinates from ORCA-job NEB E -39.374631323320
  C           1.11788089532331      0.39469578920534     -0.43996185817156
  C           0.48811492950431      1.60946640767936     -0.21735327088857
  C           1.00198646343813     -0.26043468362605     -1.75345781839677
  H           2.07919317833793      0.21647381443710      0.02853148007517
  I           1.42557579233647      2.77656884665096      1.41434287930999
  C          -0.21720733190206     -0.66616415468180      1.14425862827618
  C          -1.43652133971375     -0.31666610829344      0.53706885050678
  C          -1.94492497751757      0.94815552681071      0.59901376033958
  O          -0.61029766570571      1.97071968277229     -0.59731298875696
  N           0.20291420928026     -1.93393758382517      1.20794648914395
  H           0.21382740996662     -0.00071056383922      1.88148012196751
  H          -1.88470444022903     -1.03903261593179     -0.13110306890104
  H          -1.65780410093320      1.62687041852711      1.38585813918083
  H          -2.83777684309888      1.20152188481198      0.05483991063187
  Br         -0.70202300239072     -0.13944134680392     -2.65513285631739
  Br          2.37837974801214      0.55946132650489     -3.02677297098672
  Br          1.49478589754976     -2.15880943498074     -1.65772728691608
  H          -0.19481732063190     -2.62430851067799      0.58998170244669
  H           1.08341849837389     -2.16442869473964      1.63550015745654
