23
Coordinates from ORCA-job NEB E -32.243816905990
  C          -0.44793927917887      1.30779550542393     -0.75849036774460
  C          -0.32589212489233      0.08382415072469     -1.26027072417872
  C           0.00406211585936      2.50593008371225     -1.58800189651910
  H          -1.38955125400902      1.50221017341337     -0.25655598714799
  Cl         -1.50189492539777     -0.57905105015762     -2.86997765394758
  C          -0.37170029234177     -2.43736871699873      1.14874743341342
  C           0.80660117474466     -1.83870054762992      1.11240910919951
  C           1.31537191820981     -0.99870219085622     -0.02346643167598
  O           0.36687388869268     -0.94394585371678     -1.09575863467098
  C          -0.85805528860184     -3.26183982017420      2.28905095782014
  H          -1.05349181658950     -2.34881775277914      0.31349882018089
  H           1.50351486424257     -1.92021416752925      1.93508472167650
  H           2.22304046168709     -1.44390950781717     -0.44534546202042
  H           1.52979751618551      0.02114770914134      0.32236770407349
  C           0.20729186844414      3.71859833343546     -0.68955875847848
  H          -0.74063465520591      2.73342698441469     -2.35668390755581
  H           0.93848483404937      2.25563772990314     -2.09340196641625
  H          -0.72493759952966      3.99338365375438     -0.20215918166744
  H           0.55197804134171      4.56498441997110     -1.27918326447988
  H           0.94764670633714      3.50882927042943      0.07924683897277
  H          -1.07429475270066     -4.27383369861776      1.94942425900440
  H          -1.78431137732131     -2.84405845589314      2.68138932780725
  H          -0.12196002402540     -3.30532625215387      3.08763506435485
