23
Coordinates from ORCA-job NEB_product E -32.350550949770
  C           2.52498767154124     -1.35064999061271      0.69289008368271
  C           1.41441381045369     -0.78288577808994      1.52043120376763
  C           2.32945825888680     -0.87393332075049     -0.75422882278965
  H           3.47447268955423     -0.97089712051397      1.08109981172663
  Cl          1.82821950781733     -0.73762261374988      3.25524977793813
  C           2.50865234774038     -2.89654520618762      0.91719562191606
  C           1.54850231626956     -3.57353718308376     -0.01616252644089
  C           0.31391443210136     -3.90444682604880      0.31128954039897
  O           0.34753662583909     -0.40485561399270      1.17717179360170
  C           3.90876582598332     -3.49854733366760      0.80408599276722
  H           2.16458684879347     -3.06589410200454      1.94353874166487
  H           1.92843530322561     -3.79384038689694     -1.00456699076502
  H          -0.08886113678750     -3.69834982248850      1.28955698301123
  H          -0.35069229154295     -4.38924626264469     -0.38310033141829
  C           3.51076213872040     -1.16031038329518     -1.67172777102727
  H           2.16986561605360      0.20662757271657     -0.72051420969943
  H           1.42125932430978     -1.32173216975298     -1.15883111568904
  H           4.44047925830181     -0.81740770652633     -1.22286698130506
  H           3.37516018885654     -0.63630047957744     -2.61493345449241
  H           3.59852843683346     -2.22027742835487     -1.89085654181181
  H           4.57686618504066     -3.04492850304384      1.53233236649218
  H           4.32823097818391     -3.35687973382803     -0.18670944961887
  H           3.85905566382419     -4.56643960760574      1.00605627809044
