23
Coordinates from ORCA-job NEB_reactant E -32.334090369870
  C           3.19753574148160     -0.73694425453168     -0.78049654172830
  C           3.54282176435965     -2.01191213739982     -0.91088686963840
  C           1.80772572306548     -0.22841303393260     -1.01272923428942
  H           3.94299946176744     -0.01616106433537     -0.48691440993579
  Cl          5.18991604414162     -2.49115002779559     -0.57210696984415
  C           2.17981804840453     -3.68120464566645      1.36461639497389
  C           2.71501835863424     -4.54193619747232      0.51615363644613
  C           2.90449015602582     -4.30651393246097     -0.95452341273529
  O           2.70956146940263     -2.96371608136219     -1.36712426783676
  C           2.01150474231798     -3.92952238208284      2.82483156083541
  H           1.83222405121178     -2.71925977447270      1.01296658923108
  H           3.06197901058091     -5.50959378876366      0.85292674997684
  H           2.16126648553543     -4.87293085200419     -1.52664162209766
  H           3.90259956405516     -4.65183970401914     -1.25552086997858
  C           1.30304413814420      0.56328485797995      0.19238444073214
  H           1.14691377194444     -1.07101011014583     -1.21760935478257
  H           1.80774422741178      0.42209997678161     -1.89177098146328
  H           1.28191804915950     -0.06404933896802      1.08062626060018
  H           0.29753204765905      0.93350171115232      0.00761766457209
  H           1.95322633458885      1.41255391540687      0.38957285853552
  H           2.37079007100788     -4.91830988142498      3.09845913418734
  H           0.96069685793842     -3.84553653241077      3.10055141377145
  H           2.56267388116161     -3.18333672207165      3.39661783046817
