20
Coordinates from ORCA-job P E -29.378274938850
  C          -1.11181099386538      0.19617744103621     -2.63591290508022
  C          -0.46583117004473     -1.65157938968138     -0.37952774272417
  C          -1.40056342794161     -1.99691999242206     -1.49810254517080
  C          -1.69119692496435     -1.18180494681203     -2.49625674811421
  C          -0.63276027267971      0.71122275354489     -1.26933378077555
  C           0.26025842604723     -0.32929887411865     -0.60744326269862
  H          -1.84283929223434     -2.98153585539756     -1.44599791965547
  H          -2.37536319222375     -1.46554330209463     -3.28044113619243
  O          -2.10891879204809      1.01667529926507     -3.21467635629576
  H          -1.02999127248755     -1.59196973446574      0.55569945913512
  H          -0.24256231174826      0.14823397402484     -3.31821844573445
  H           0.27795151336934     -2.44437079885071     -0.26316842424366
  H          -1.50019086797436      0.89269129076310     -0.63358765383956
  H           0.67287404925627      0.05362205373104      0.33595085377460
  H          -0.07706497011728      1.64285002999789     -1.38758272355103
  F           1.36439905999541     -0.55029158807375     -1.41727988976438
  C          -1.64691662299650      2.23941851893000     -3.72635692190959
  H          -2.48254296748184      2.67595406169017     -4.27073744169262
  H          -0.80375204128570      2.09029804629173     -4.41245902595987
  H          -1.33881792857480      2.92987101264157     -2.93300738950732
