20
Coordinates from ORCA-job TS E -29.275074016700
  C          -0.47800408227647      0.05051478485247     -0.86875044607610
  C           0.77738700124622     -1.97038440192074      0.74500594396179
  C          -0.54563623065681     -2.00273071149231      0.42590536385626
  C          -1.16345321864395     -1.01697415449791     -0.36269941761295
  C           0.18013962457484      0.89175878876089      1.20209001722661
  C           0.88763211828488     -0.05326023449911      1.86670381467008
  H          -1.19523465670859     -2.69545118650642      0.94305482779001
  H          -2.24144769648459     -0.98873184624226     -0.41554459228153
  O          -1.15853298695384      1.04893929121596     -1.48329437001389
  H           1.18218731703853     -2.69464985668732      1.43383839512923
  H           0.58432933520535      0.00469952781048     -1.06828638812431
  H           1.50214772128923     -1.51544598210810      0.09371059295643
  H          -0.85024541403416      1.06039932819526      1.44305026404724
  H           0.53658477151596     -0.59675670782680      2.72883432310714
  H           0.70009588884716      1.65103260326923      0.64751643722003
  F           2.24313323743003     -0.00960022406925      1.82154035944439
  C          -0.38173893992313      2.01293211040338     -2.15276371372764
  H          -1.08184375874220      2.68751521228139     -2.64204376768928
  H           0.26582680148250      1.55221952494535     -2.90590926456837
  H           0.23667316750902      2.58397413411580     -1.45195837931513
