20
Coordinates from ORCA-job NEB E -47.531572818130
  C           0.45347943725933      0.77552207789354      0.38563848114474
  C          -0.84188274639095      0.26611161600898      0.61308108422381
  C           0.58856723282847      1.99629761629907     -0.50765939575758
  H           1.05224171496555      0.94366568304934      1.27999790481639
  C          -1.19819546438249     -0.27786610282670      1.96170738788119
  C           1.32442723687553     -0.57185331865808     -0.63844185265758
  C           0.37160092501044     -1.54101216024520     -0.96581377161067
  C          -0.85828973709898     -1.03025888705310     -1.51029584644649
  O          -1.55601220088565     -0.20626658941287     -0.36880891836149
  I           3.06883998371746     -1.20333725753291      0.41193587952744
  H           1.62346717908508      0.09331440398264     -1.43854626552072
  H           0.34040411002549     -2.47204155425515     -0.41803027397716
  H          -1.61120575786799     -1.77673369315503     -1.74595393846171
  H          -0.74954860104459     -0.30038158449261     -2.31059144726350
  F           1.88939969298002      2.28131429301982     -0.73330642857286
  F           0.02105917304155      1.84330801311026     -1.72300654524188
  H           0.13197543629800      2.87985925653390     -0.03187209484964
  Br         -0.78831893162892      0.98425771130935      3.37770199723242
  Br         -3.08030320578669     -0.71386535693369      2.01251857022219
  Br         -0.18170547700065     -1.97003416664156      2.34974547367309
