20
Coordinates from ORCA-job NEB_product E -47.574506772080
  C           2.54049799425654     -1.68301263280240     -0.14477261831900
  C           1.27226633229753     -2.32537543937951      0.37934155496371
  C           2.22210828610273     -0.31523979168275     -0.78225072667408
  H           3.24804428237670     -1.48910305916147      0.66788351745219
  C           1.09867316524218     -2.37399783096113      1.89655885607382
  C           3.20809159973627     -2.60206217104017     -1.18292378392329
  C           2.46394339849431     -2.75572740418886     -2.45865784066598
  C           3.02268259910622     -2.52658599617216     -3.63391184424710
  O           0.38328339394609     -2.72678403891720     -0.31007956923851
  I           3.46344821100332     -4.57792090688625     -0.26089282646701
  H           4.22218278099955     -2.24423899737156     -1.36881470082955
  H           1.43371569920529     -3.07164823937801     -2.37956104232540
  H           2.46673903607811     -2.63771853236746     -4.54747965218815
  H           4.04882466323727     -2.20924305208863     -3.72771640668222
  F           3.32798042044934      0.15912784681633     -1.39785132045831
  F           1.26190955326110     -0.39837661123011     -1.71842429847484
  H           1.90667025904010      0.43349741097705     -0.03843182507371
  Br          0.51924609905087     -0.53534311819848      2.31614667617922
  Br         -0.31286924582352     -3.60911632928949      2.34316854806527
  Br          2.67096147194002     -2.76973110667775      2.94196930283294
