20
Coordinates from ORCA-job NEB_reactant E -47.567591750440
  C           1.65852236685569     -0.13940455963892      0.13276824733750
  C           1.56384271153112     -1.45654312931521      0.36331065851920
  C           2.15712754662307      0.58561876589224     -1.07568368277183
  H           1.33214286333613      0.52080874106674      0.92196912392591
  C           1.01024955227930     -1.89556865973137      1.70464120269161
  C           3.92333681031564     -4.31210805694797     -2.46869912075126
  C           2.74634787171445     -3.90915131945385     -2.03155935784209
  C           2.47213048530974     -2.48947417564699     -1.64260122918407
  O           1.87334246659424     -2.53484474718808     -0.34940019270461
  I           4.31027307681626     -6.28740698032949     -3.05288740901796
  H           4.77027744630247     -3.65616107771578     -2.58405042195565
  H           1.91488855144758     -4.58865900055466     -1.91624302769250
  H           1.77018607733464     -2.04205922176917     -2.35670705011848
  H           3.39782112693870     -1.90857565532533     -1.61813779883821
  F           3.47176662090084      0.33628032783444     -1.33269754591657
  F           1.49267034960530      0.23520619371069     -2.21021579015114
  H           2.05022181618670      1.67245164693449     -0.95688986761602
  Br         -0.74522185095881     -1.10995418102057      2.02917092065445
  Br          0.83032011442000     -3.81136184329022      1.80227734712813
  Br          2.21315399644695     -1.32379306751103      3.13903499430360
