22
Coordinates from ORCA-job NEB E -46.333001143260
  C          -0.24416545474343      0.64582972640274     -0.94187507998158
  C          -1.11306724256703      1.24786288140092     -0.01508414895703
  C          -0.79565995761538     -0.08181788649648     -2.02132409683793
  H           0.67639354678128      1.16820572641032     -1.17891809373064
  C          -0.51636717863150      2.42015391477408      0.78606925207069
  C           0.40243145095000     -1.04557013612174      0.13449817415577
  C          -0.45889856364849     -1.04932062578443      1.24758791985045
  C          -1.81997451505371     -1.08373118636541      1.06638715021167
  O          -2.15217839776429      0.70965673280252      0.42115699671522
  O           1.70615557214323     -0.83536560673957      0.34592054454037
  H           0.14951941877029     -1.69361523166534     -0.70380584983949
  H          -0.04657515058748     -0.67009630433422      2.17282003122258
  H          -2.47958638179304     -1.02756101321760      1.91557072125469
  H          -2.23496892518391     -1.52920524430566      0.17500454890796
  N          -1.21427647427050     -0.66355265051147     -2.91519415958722
  F           0.28793527997432      1.97654088753932      1.77347304075989
  F           0.24016090088520      3.22508110393813      0.02095508987199
  F          -1.45107412666540      3.17678957633074      1.35587755642532
  C           2.58618795788134     -1.16237151698230     -0.71249703791199
  H           3.58699469662830     -0.92423359030150     -0.35934836903558
  H           2.36579318928374     -0.57730067177204     -1.61006002425921
  H           2.52522035522645     -2.22637888500099     -0.95721416584591
