22
Coordinates from ORCA-job NEB_reactant E -46.376948327100
  C           1.34050991449577     -0.22300659940835     -0.06390416726456
  C           1.43570005225441     -0.05200531916458      1.26561192898606
  C           1.11576444594709     -1.42517150541601     -0.74960439882018
  H           1.41238769380001      0.64391926190662     -0.70599061522275
  C           1.64403292010876      1.35107375156116      1.82296737209496
  C           3.22622370868541     -3.47918406181151      0.77106369986862
  C           2.87036385949709     -2.74003915896651      1.81765522046425
  C           1.45854924409653     -2.31988640554031      2.08190721590079
  O           1.37614509381620     -0.90375846122504      2.28758409267419
  O           4.45040467259411     -3.92599061983229      0.44821544394971
  H           2.50195670411713     -3.82064432706162      0.04291846243050
  H           3.58483014042474     -2.38995619951733      2.54669753386656
  H           1.10481230371950     -2.72492000365216      3.03524768332382
  H           0.78690371212049     -2.63628489979323      1.28111136297713
  N           0.91113832449364     -2.36657198824428     -1.37387108380789
  F           2.83078464606172      1.45300883168215      2.43819773353532
  F           1.61920632033943      2.29873347391697      0.87908100009477
  F           0.70944933966699      1.67439666249284      2.72151387170779
  C           5.52776115619934     -3.57500498927630      1.28890990620972
  H           6.41196677775328     -4.03281962679734      0.84993772079338
  H           5.37954070712467     -3.96046854296272      2.30194632413328
  H           5.66016826268368     -2.48981927289014      1.33070369210452
