21
Coordinates from ORCA-job NEB_product E -48.357424930030
  C           2.52998715240828      1.45557385723286      0.61381801699248
  C           1.42371426017711      1.21813242647715     -0.43319051592859
  C           2.65957888178031      0.19706233645479      1.48428407345248
  H           3.49486130986419      1.54534139246941      0.09538681831726
  O           1.45895529079962      2.03407715097125     -1.48829888808599
  C           2.20300467968163      2.80256627240767      1.30975186819917
  C           0.85042387799491      2.79329367562500      1.97555927268128
  C          -0.17078143888986      3.49077086305780      1.51588572888919
  O           0.59097266656265      0.37405849055911     -0.31816811869074
  C           3.26890220017488      3.32659663838607      2.27595380258778
  H           2.16761111158822      3.55337803833462      0.50424015672413
  H           0.74903914446562      2.18161822333200      2.85848315440342
  H          -0.10200232933755      4.11004168218718      0.63581768033346
  H          -1.12659873956308      3.46484182508080      2.00704026320176
  F           3.90993438515166      0.12132013657111      2.00106921474966
  F           1.81176847869075      0.15898171985046      2.52580169226434
  H           2.48919280687014     -0.70898952682504      0.88270674831468
  H           2.22348359583341      2.62562009481250     -1.52165412067615
  Br          2.81829507441202      5.20385250418653      2.67670975841093
  Br          3.40401642459410      2.40313419983815      3.97432482831315
  Br          5.04054116674099      3.34772799899057      1.42417856554630
