22
Coordinates from ORCA-job R E -48.974155918290
  C          -1.34087166005893     -0.13038836805483     -3.05905804067876
  C           0.45335926969818     -2.50822278174544     -2.61451970571236
  C          -0.80742338522968     -2.38185089583469     -2.21802315964631
  C          -1.56672629432823     -1.14492888243512     -2.22434951058161
  C          -0.83365666551895      2.06181566536240      0.35930998127728
  C          -0.54177988015005      0.89180941017312      0.89343944641885
  H          -1.33506308792011     -3.24129843811682     -1.82578381038766
  H          -2.37522328380368     -1.09000609404230     -1.50854165624756
  C          -2.11452613090215      1.12833259815582     -3.11695006565597
  H           0.96059599501549     -3.45597502108463     -2.57379507136685
  H          -0.56025389866888     -0.18900054073824     -3.80280298384926
  H           1.03038860782223     -1.66560696494488     -2.95558761411898
  H          -1.66176840352810      2.64622367892532      0.71749944153522
  H          -1.09803684113741      0.45430131926635      1.70920642032778
  H          -0.25743813086750      2.47426619563915     -0.45238666121345
  C           0.61038283716332      0.05438828987470      0.42957777519585
  Cl         -3.20460354796988      1.36611929402457     -1.74523012197593
  Cl         -1.00464310723749      2.52588124908680     -3.19350996559200
  Cl         -3.11142023280516      1.15226056086690     -4.61758260415067
  F           0.32769364678530     -1.26070488690740      0.48291420842412
  F           0.99445780240465      0.31370487135809     -0.82741079142991
  F           1.70347639123699      0.22719974117113      1.19943448942822
