20
Coordinates from ORCA-job NEB E -40.494139982430
  C          -0.38057373246371     -0.36819654792204      0.56599751880137
  C           0.56881722102448     -3.40295680404765     -1.00020036567480
  C           0.52709688063235     -0.61563149111748      1.49801374216885
  H          -1.10736617176044     -1.14446396012405      0.36801110096611
  C           1.85127479843083     -3.63200829681504     -1.20198614025335
  C          -0.53703855732435      0.89057242353568     -0.25817134159940
  C          -1.13066097665652      1.97768603922423      0.61228077771094
  C          -2.34571423204390      2.46358508424956      0.44993738387968
  O          -0.57030083436321     -3.26400078495876     -0.83778386566078
  N           0.71502155607240      1.28545536005463     -0.86557636820943
  H          -1.23405326823795      0.65534195309826     -1.06803340300129
  H          -0.47784425392868      2.34801997237825      1.39063440214133
  H          -3.00589901898354      2.10350298387158     -0.32232034191298
  H          -2.73357201407952      3.24115795435056      1.08535153918488
  Br          0.57849930192266     -2.29945819962327      2.38273359926184
  Br          2.44423651284652     -0.73014483868796     -1.59820481568791
  Br          1.85993352835880      0.56232003593153      2.11972813268642
  N           3.00626264234871     -3.63912986297898     -1.41549144778314
  H           1.37275124149353      1.70333672583695     -0.22102475016276
  H           0.59912937671157      1.86501225374401     -1.68389535685556
