20
Coordinates from ORCA-job NEB_reactant E -40.593475137640
  C           2.13231221331618      0.36313937991089     -0.24401705897098
  C           1.35711428884684      0.63351080560161     -1.31645839126660
  C           1.84183073335069      0.60159680697316      1.17813436106661
  H           3.08587059931098     -0.10859162394598     -0.44260138966426
  C           1.86734805366717      0.17440079288573     -2.57542121722321
  C           0.57194367723994      4.13282255448810     -2.73194444524542
  C           0.85824883758072      3.52538168260845     -1.57725434125653
  C          -0.06790226916757      2.55589232662979     -0.93171687926166
  O           0.14655397916229      1.20390676935505     -1.40682746419739
  N           1.42794696954283      4.93361706126225     -3.43222411955764
  H          -0.38368602916368      3.96616046795641     -3.21084768307009
  H           1.82095657654780      3.67311508986457     -1.10786112970565
  H          -1.10503817907670      2.73856557498038     -1.21658096506907
  H           0.01437525886979      2.60280642948912      0.15690158229761
  Br         -0.03338274480956      0.28968466900336      1.65410785027478
  Br          2.92084915466654     -0.60177843757785      2.29041214826508
  Br          2.33437119819458      2.46287754655811      1.73875092392203
  N           2.26663806902697     -0.17885794902478     -3.58784921169575
  H           2.26059323799897      5.23755553898887     -2.95379181193994
  H           1.03415637489521      5.59539451399275     -4.07811075770195
