31
Coordinates from ORCA-job R E -42.113006564190
  C          -1.51130103724978     -0.24906489690791     -3.10322914543440
  C          -0.24582901475627     -2.92722184613581     -2.50092696589304
  C          -1.31916305452204     -2.41074763379041     -1.91200774298221
  C          -1.79997729280554     -1.05090284834051     -2.08065767761612
  C          -0.92821407504437      1.69320750349642      0.13553830315743
  C          -0.26560213030377      0.62649231671690      0.54282103287891
  H          -1.88932148811987     -3.01474233945282     -1.21833790351116
  H          -2.45130440269647     -0.68603434597073     -1.29687828972441
  C          -2.02837858811408      1.14599435481306     -3.20031250134589
  H           0.06074472163339     -3.94449865747339     -2.32207542354035
  H          -0.89597296862183     -0.56493077166344     -3.93160701761216
  H           0.37356123955604     -2.35426366568471     -3.17100640733949
  H          -1.96261496151575      1.84893589170306      0.39650153227235
  H          -0.77246574560982     -0.10837205812438      1.15444643161750
  H          -0.47775135229023      2.46343556755258     -0.46674459434197
  C           1.19156459641683      0.33690206704157      0.27433113950832
  F          -1.00865439199519      2.03402388273942     -3.34700783912680
  F          -2.80847239827459      1.30534739400605     -4.30601170817231
  H          -2.62027431078412      1.45523164837993     -2.32593914566811
  C           2.03941047324539      1.24845584557997      1.17300143892405
  C           1.48816971407370     -1.12648237358584      0.61547763409634
  C           1.54667789114908      0.58963459738548     -1.19334972305265
  H           1.79636728582054      1.08339847806902      2.22067625943205
  H           1.85120968556521      2.29294167577173      0.93826408177480
  H           3.09791144076186      1.04391189586962      1.02756736404383
  H           1.25559377436829     -1.33128718259719      1.65856354387943
  H           2.54029779678960     -1.34940091175854      0.45147616888284
  H           0.89850965283776     -1.79215429031464     -0.01253021425175
  H           1.37516964012557      1.62560174210354     -1.46915727573644
  H           0.93932268479520     -0.04106762340063     -1.83817943371224
  H           2.59545661556525      0.35907658397257     -1.36817592140640
