31
Coordinates from ORCA-job TS E -42.096169906650
  C          -1.58418186803439      0.27380237561462     -1.60054368276215
  C          -0.50258525221482     -2.04064733735026     -0.32440096752698
  C          -1.82518418006985     -1.91347764575503     -0.58697157379440
  C          -2.36174646592909     -0.79272217514479     -1.25350739263594
  C          -0.93024054035069      0.86292631971775      0.45176291925007
  C          -0.09829924511710     -0.07934835419237      0.96910632445036
  H          -2.52636945318647     -2.59606982426653     -0.12700688084430
  H          -3.43798050406919     -0.68693539563432     -1.28031835357646
  C          -2.20932953485678      1.49165692376970     -2.20486837478535
  H          -0.15393767153744     -2.85084872748277      0.29355011420247
  H          -0.54257216723371      0.15486018062486     -1.84623633711432
  H           0.23694574437487     -1.55372709681022     -0.92772908170318
  H          -1.95520224460317      0.90953728017574      0.77767033145078
  H          -0.48270917315798     -0.75834744876634      1.71529612874660
  H          -0.53908213188526      1.75970001700865      0.00569306168164
  C           1.41168169140248      0.07698840990000      0.97261123886902
  F          -1.38423420774424      2.56791807620822     -2.12472145751824
  F          -2.43529047796703      1.31377432047850     -3.54037068461717
  H          -3.17156332795906      1.77276450402298     -1.74895965414270
  C           1.71730362163719      1.14650853923771      2.03895717732825
  C           2.11076666436227     -1.21914923228922      1.39290795245195
  C           1.98411182262113      0.54892461207576     -0.36649013696323
  H           1.31713614663764      0.84614924700770      3.00479291900067
  H           1.27087909593031      2.09896435578847      1.76565182104207
  H           2.79186849829981      1.28344094887443      2.13919215524707
  H           1.68029228283454     -1.60651634814145      2.31372440549052
  H           3.16824084691543     -1.03066558680410      1.56646374155967
  H           2.02937185337547     -1.98197363019210      0.62442057907612
  H           1.50910447934099      1.46694011450102     -0.70068946630948
  H           1.86341884029475     -0.20700346098351     -1.13931725786486
  H           3.04938685788941      0.74257603880690     -0.25966956768851
