24
Coordinates from ORCA-job NEB E -43.018402636240
  C           0.67696704611462     -0.65108254476656      0.41404231693078
  C          -0.72890739812836     -0.53661067998842      0.53002682315943
  C           1.49397669627041     -0.71347770714702      1.66005991482456
  H           1.02206669518309     -1.41553200864945     -0.28399758478920
  C          -1.63261113854069     -1.33521500784845     -0.38203249683285
  C           1.07314641084338      1.05846272458422     -0.52710910656932
  C           0.47058656031389      2.00308514678673      0.31770952347556
  C          -0.91353564775885      1.94855542890605      0.54518588766839
  O          -1.22102572717734      0.40804995103249      1.24487417967471
  O           2.42290685578096      1.14107647341300     -0.66584652006743
  H           0.53671389216359      0.76708620296731     -1.42672665837704
  H           1.11187460321769      2.50249234376128      1.02680599037200
  H          -1.56870612064078      1.82331642695980     -0.30835529797883
  H          -1.31277300089689      2.60593815847134      1.30431364614102
  Br          1.16220411815093     -2.54226517326252      2.44233792681000
  Br          3.42043606341881     -0.66557084901700      1.34242106590359
  Br          1.07991008057124      0.53678027883566      3.06197406357030
  C          -1.46009571940991     -1.04914096151399     -1.87491820090513
  H          -2.66011389545387     -1.11710191806574     -0.08665237108709
  H          -1.44554482689360     -2.39725352257760     -0.20119491079969
  H          -1.65083244933696     -0.00167304601206     -2.09811283649049
  H          -2.17006875340114     -1.64806160606703     -2.43957014667493
  H          -0.45943811859310     -1.30766401715523     -2.21474987564282
  H           2.75286377420288      0.58580590635317     -1.38048533231550
