24
Coordinates from ORCA-job NEB_reactant E -43.058543107800
  C           1.41027629003569      0.71224459345560     -0.14742558129179
  C           1.90130213787119      1.06734354073359     -1.34031140707123
  C           2.10839208025854      0.71104031035108      1.14797627300667
  H           0.37781109967577      0.39687211506870     -0.09231365652099
  C           1.07229510785092      0.95245908909126     -2.58810903084322
  C           1.93308454389075      4.58232735470396     -2.08163531822041
  C           2.94028498438535      3.74994320982903     -2.31594778243787
  C           3.49588447751842      2.83558199376992     -1.27319076299844
  O           3.19260882975032      1.46002805154726     -1.53728886209485
  O           1.37527368866030      5.42558013127170     -2.97209185108356
  H           1.46324183389382      4.66832013161573     -1.11127482743036
  H           3.38324590901950      3.67865269877326     -3.30056728280977
  H           3.12538185004537      3.13173718714022     -0.28588754066139
  H           4.58813945953222      2.86188739616821     -1.27020440434766
  Br          1.40751679904470     -0.73302466704287      2.27996074891987
  Br          4.03149612729544      0.48073462700198      1.06345813361596
  Br          1.74728151393468      2.42320217864661      2.13434488846966
  C           1.67321693293468     -0.09588336294198     -3.52542778969827
  H           1.07622321662105      1.92530561647919     -3.08665581782497
  H           0.04457378305125      0.69245048421453     -2.33603397905059
  H           2.71447541686428      0.14002704999531     -3.72924534601554
  H           1.12510784138627     -0.11883310833645     -4.46343544815903
  H           1.62631512257441     -1.08162069149277     -3.06909421637396
  H           1.82327095390509      5.35752406995690     -3.82569913907825
