24
Coordinates from ORCA-job NEB_product E -43.063688704540
  C           2.16284081773732      1.45923120135400     -1.12979757487996
  C           0.75855033516666      1.30864407574950     -1.75870120667958
  C           2.00924376800863      1.26409652042975      0.36091775556554
  H           2.83940242603710      0.69586725943342     -1.52782341861258
  C           0.56017269792644      0.12806245782022     -2.66608785559637
  C           2.69970950149339      2.84980670155246     -1.54019020738609
  C           3.97479596133501      3.23726982969788     -0.84698501892915
  C           4.08643961118015      4.29132781624527     -0.05951175889701
  O          -0.09103162247799      2.12307316460680     -1.51794431936445
  O           2.90656549596826      2.75091162233853     -2.93842639782243
  H           1.91587317201043      3.59448428629090     -1.32746955798205
  H           4.82903486316823      2.61833279963030     -1.08706154403123
  H           3.24247834572884      4.92058221731190      0.17328736273190
  H           5.02279432172969      4.55305897323244      0.40123095255813
  Br          0.96207966419676     -0.36334024210049      0.70186839789623
  Br          3.72060307731330      0.98699198811802      1.26339993517974
  Br          1.09847949467627      2.72915157905576      1.23108652246979
  C           0.94652891448312      0.53212633968750     -4.09281691607634
  H          -0.49364017779684     -0.15415856390675     -2.64044233161215
  H           1.16741743657305     -0.71835189458214     -2.34318348877887
  H           0.29484178433617      1.32776819244484     -4.44415481319542
  H           0.84519682945270     -0.32345703197854     -4.75474681778730
  H           1.97210622873789      0.89029612663443     -4.12592097731638
  H           3.23261705301541      3.59662458093400     -3.26352672145397
