19
Coordinates from ORCA-job NEB E -42.085322153730
  C           0.92254640899200      0.21373176504287     -0.42705385258528
  C           0.10747987361511      1.16499249944650      0.23540764704096
  C           0.65220411895040     -0.02495078007449     -1.88613940986388
  H           1.99267553236672      0.27422640375330     -0.25565935962278
  N           0.63497904924234      1.87127584517027      1.28950491096793
  C           0.30472421529594     -1.40533450816695      0.53144394643163
  C          -1.07866334556128     -1.39098273321652      0.34824433610129
  C          -1.78719821341921     -0.28362397886798      0.86720692045246
  O          -1.16994235865781      1.10813708044975      0.13065419918980
  Cl          1.21709148024403     -2.73577928482478     -0.11447430922422
  H           0.70922469049061     -1.09243523611142      1.48907151131416
  H          -1.49686712155924     -1.93056732027366     -0.48636489721766
  H          -1.57791368620789      0.00125526298198      1.89353084872984
  H          -2.83266919779419     -0.20723995984453      0.60304586223997
  F           1.47967214074197     -0.93552680434318     -2.41630413266387
  F          -0.58658806826489     -0.39806363161085     -2.20025783698408
  F           0.88290184177578      1.11206548774107     -2.59087532828702
  H           0.01676298441004      2.54126497698241      1.71889712935366
  H           1.60957965533957      2.11755491576621      1.27012181462708
