19
Coordinates from ORCA-job NEB_product E -42.141213441870
  C           1.71708627947197     -1.56928276242515      1.21436235917034
  C           1.09534200008980     -0.28586845619371      1.82930962311172
  C           1.47651779540546     -1.59569142494413     -0.29097203693284
  H           2.80253196960844     -1.53225334410545      1.36302862475223
  N           1.57059381365291      0.86186906172349      1.31457465992031
  C           1.14982826204151     -2.80341340216857      1.93631039039064
  C          -0.18123926606387     -3.25136820254117      1.42422874582278
  C          -1.29953181998085     -3.08473096906150      2.10477597443220
  O           0.28955812027042     -0.32812827783124      2.72327021853498
  Cl          2.32645386840744     -4.15759156097290      1.80228026782510
  H           1.07916831316566     -2.55756113913349      2.99908899041836
  H          -0.17865611898707     -3.73823238424952      0.45927182202514
  H          -1.30847230652918     -2.59571902646574      3.06384608814570
  H          -2.24746796563793     -3.40830866537337      1.71242058635849
  F           1.72893701189284     -2.77341687528016     -0.86010017316935
  F           0.22555479885002     -1.25884871439543     -0.63038153550263
  F           2.27734717200846     -0.70746746176457     -0.92352694857180
  H           1.17688062363814      1.72382604721479      1.65708038494581
  H           2.21276744869581      0.90778755796783      0.54323195832283
