19
Coordinates from ORCA-job NEB_reactant E -42.115965653470
  C           1.74929223379668      0.00982456820024     -0.01819298876700
  C           1.24568745430969     -0.43731186896475      1.15042151561526
  C           2.01139915309167     -0.91192048891236     -1.14575390854316
  H           1.98806771046810      1.04292492838472     -0.18138625013135
  N           0.86821210422026      0.40783127417920      2.16679946679559
  C          -0.13042386511866     -4.65646625061187      2.73161077215107
  C          -0.25216151575796     -3.60468182740134      1.93979082445347
  C           0.19118152663285     -2.22895941448768      2.33077348363726
  O           1.05614486844419     -1.75807081213977      1.30664376865825
  Cl         -0.65755806097224     -6.22286051543543      2.28209562732758
  H           0.28910169205799     -4.61020151478178      3.72575915833998
  H          -0.65892091807249     -3.69070538901363      0.94384126892373
  H           0.71547637353686     -2.25641311907403      3.29587859732420
  H          -0.68177628916014     -1.56700680903167      2.41016886190026
  F           3.00441010322101     -1.79935464268313     -0.90990547659343
  F           0.94494547760571     -1.66035121752673     -1.49692490350619
  F           2.37694382929548     -0.24261149001157     -2.25248122538650
  H           0.97922714966220      0.06485249786104      3.10829376710423
  H           1.15305097273880      1.36568209145052      2.04416764069675
