19
Coordinates from ORCA-job NEB E -37.829894143540
  C           0.21585972700207      1.19200759729006     -0.29444033648290
  C          -0.86930888231934      0.73634724286500     -1.26288912199567
  Cl          1.24751278403482      2.11659353651481     -1.45318312634275
  H          -0.31889013233878      1.96025735175336      0.29075397310914
  C          -1.13575897414437     -0.60588752878237     -2.03336467929935
  C           1.11343542022444      0.38794297616048      0.68245331803645
  C           0.35596853240469      0.11755096751348      1.98228630332337
  C          -0.63334410798999     -0.73352483865736      2.15953188617910
  O          -1.63487010305425      1.59936301013935     -1.61243444176060
  N           1.75219105750814     -0.77350554252606      0.13852934583881
  H           1.90628646989544      1.09674746938266      0.96444234307826
  H           0.71078332347818      0.67105575813242      2.82764990817860
  H          -1.03429125549854     -1.34317126748240      1.35302969279560
  H          -1.09002348996540     -0.97616845602358      3.10464157339058
  F          -0.47225918384558     -1.72771418771464     -1.69339214850320
  F          -2.43712117318015     -0.93656418544541     -1.89594647261784
  H          -0.90878198158295     -0.36543670502297     -3.08600557034672
  H           1.68098167085005     -0.82766311081764     -0.85334058349062
  H           1.55163029852153     -1.58823008727919      0.68167813690975
