19
Coordinates from ORCA-job NEB_product E -37.862328427310
  C           2.33452494991306      1.81722833657552      1.26965233559497
  C           1.08356951351071      2.56256811109866      0.85481715220499
  Cl          1.95547491447554      0.13364634062577      0.78235002384264
  H           3.20769396760880      2.13096839994198      0.69490896422191
  C           1.01083147751649      2.88807542646535     -0.65549185963603
  C           2.59982727997043      1.91234137981567      2.77689558136988
  C           3.60453171353691      0.87727740395897      3.20877825746528
  C           3.39273969935958     -0.00112277315380      4.16981340285708
  O           0.16566343570082      2.80767838626570      1.57788266473448
  N           3.03902659811724      3.27931963292262      3.02608584365810
  H           1.65163304103617      1.76451377930833      3.30406275906608
  H           4.55744751916466      0.92380535970636      2.69623034336669
  H           2.44882931521111     -0.05636734535295      4.68681456666275
  H           4.14745298188745     -0.70567585813721      4.47460002908237
  F           0.32774279061209      4.02898135682063     -0.86160682463773
  F           2.23785651701739      3.06040938875405     -1.19853167315955
  H           0.50433278528399      2.07605163593228     -1.20528939888276
  H           3.98845931370104      3.41674600204732      2.69438299565461
  H           3.01896218637651      3.48365503640475      4.01734483653424
