21
Coordinates from ORCA-job NEB E -40.041003925920
  C           0.40993466231459      0.92911978012065      0.22930082431734
  C          -0.65558907464171      0.62508768954396      1.10315968822289
  C           0.06144111907505      1.62434526799021     -1.06425011405481
  H           1.31903451459288      1.30765873197410      0.68662530354741
  N          -0.42443747703909      0.46364603281033      2.44626940328081
  C           0.77940631101259     -0.91300334430677     -0.29114719148982
  C          -0.42488989918927     -1.38057445895969     -0.82759219230000
  C          -1.54141433085618     -1.38804702370673      0.06404531350904
  O          -1.74804525097570      0.10724813854319      0.61898484127791
  N           1.92113149017033     -0.82421056445961     -1.17228795669362
  H           1.09317024369448     -1.25889663506095      0.69035317811181
  H          -0.58315111858558     -1.26778806599430     -1.88859061444303
  H          -1.38918920072030     -1.92484011106063      0.99885880029837
  H          -2.50455254556167     -1.60775049098597     -0.38074517003105
  F           0.02628642318516      2.98368571580056     -0.83265580762729
  H          -0.93550908407413      1.33670997967124     -1.40948735286158
  H           0.80219048266374      1.46669095109792     -1.85311520365401
  H          -1.23259128198642      0.26474681463145      3.01448139538367
  H           0.29073527569716      1.02433284576827      2.87764756118108
  O           3.00823346885534     -1.00984756490438     -0.67280363833005
  O           1.72780527236873     -0.55831368851285     -2.33705106764506
