21
Coordinates from ORCA-job NEB_reactant E -40.062149366930
  C           1.81856367391708      0.12620618205873     -0.31678983937219
  C           1.85878308895455     -1.15762549717770      0.06113287041281
  C           0.93860974000485      0.61460805740703     -1.41531864599489
  H           2.48573841316789      0.83485082121184      0.14441997673321
  N           2.73472187183624     -1.67201166284755      0.99235234940389
  C           3.90248400472926     -3.36631249884366     -2.06283626437614
  C           2.74640847051569     -3.50662543520964     -1.42646520813253
  C           1.52777705592414     -2.68456310299707     -1.69021432535744
  O           1.02852591391402     -2.11164769808734     -0.48874567432199
  N           5.03634863298872     -4.17507788007715     -1.72426235626503
  H           4.09193373501799     -2.66380199018455     -2.85992786389849
  H           2.67206247566518     -4.23633728774161     -0.62901572128526
  H           0.71899532309807     -3.32847119700826     -2.05078495388178
  H           1.73779424643752     -1.91041254086502     -2.43612606655318
  F           1.58967430636151      0.55004410617638     -2.64578344222002
  H           0.66555471602726      1.66392746762379     -1.27871645276813
  H           0.04266938412654     -0.00493650079005     -1.51978141428823
  H           2.42781723804345     -2.51665970188398      1.44977690175560
  H           3.18466300303552     -1.00635005922435      1.59901170938626
  O           4.91874421613488     -4.98593275662479     -0.83034417589599
  O           6.04893049009964     -3.98587082491502     -2.36228140308049
