23
Coordinates from ORCA-job NEB_product E -48.064878372560
  C           2.59561400826267      0.90134596696307      0.66661601497433
  C           1.65879279318810      1.89162015693040      0.00168282500265
  N           1.81891001711293     -0.12521609665389      1.40869221237702
  H           3.21544591814548      0.38729628126937     -0.07356494933052
  C           2.09981495228798      2.39444139116340     -1.39598502607638
  C           3.52176245775737      1.68115084259231      1.65150030708530
  C           2.76080036766763      2.26279550694768      2.80891151884935
  C           3.04384267963196      1.98040023856318      4.06742682917362
  O           0.64542187263724      2.29614576624688      0.48700714598406
  O           4.13008434240342      2.66989853833961      0.84807528210310
  H           4.28871355473931      0.97888032640030      2.02600685887098
  H           1.98559931975412      2.96789760399955      2.54957271276906
  H           2.50060352317338      2.42884177127359      4.87972087836479
  H           3.81818981634612      1.27937050655693      4.33614212317485
  O           1.98924490198800     -1.26525247249153      1.05329256310818
  O           1.09428529400337      0.24612160855795      2.28960318134301
  F           2.52083318409316      3.67048210931068     -1.30518281251154
  F           3.11210552792868      1.67400830831767     -1.91874673756279
  H           1.25001346758986      2.36398524742825     -2.09910225504750
  C           5.21889192982419      3.31751628390291      1.46222551348869
  H           5.59293445156053      4.02650786515854      0.72790225318934
  H           4.90993944685719      3.84951352603405      2.36745480288143
  H           6.00645617304729      2.59954872318912      1.71904875778895
