20
Coordinates from ORCA-job NEB_reactant E -42.011993543780
  C           1.61309408720772      0.17390263189045      0.00432527861825
  C           1.56858915914414      1.15863557891342     -0.89316165126614
  F           2.19408150314141      0.27789692011210      1.21132652638539
  H           1.18055416955293     -0.79885777454792     -0.16131968168465
  C           0.88577204483324      0.89831151055114     -2.22220176424037
  C           2.92237681747759      5.02370902841299     -0.98977407082170
  C           3.16112453138165      4.29466801818357      0.08636999087809
  C           2.73214479816655      2.87248447431216      0.28192264248056
  O           2.04002795926197      2.41597224510931     -0.87482648810589
  C           3.35952846867005      6.43777445732834     -1.16051031204699
  H           2.37660353983009      4.59415050203152     -1.81754790074073
  H           3.70442023089721      4.69934779834289      0.92943950792414
  H           2.07680066461057      2.80018672901070      1.16062033854995
  H           3.61223074405346      2.24036219281399      0.46245306051847
  F          -0.06958792408766      1.79811934593193     -2.47281433448682
  F           1.75080969039248      0.95771663068370     -3.24166611787889
  F           0.30601725406489     -0.30709718320521     -2.28244262898029
  H           4.00462397479934      6.52610478931494     -2.03383432401342
  H           3.89888672734391      6.79134164798036     -0.28543287511122
  H           2.49430155925847      7.07847045682962     -1.32632519597774
