20
Coordinates from ORCA-job NEB E -33.532326378330
  C           0.89377640710791      0.49975535295072     -0.27035332244445
  C          -0.00254003893943      0.77228330956164      0.76853317670115
  C           0.74861242096805      1.15063724453273     -1.62725728080650
  H           1.94722327410577      0.46458377903616     -0.00623609591040
  C           0.43988738161417      0.59878428170665      2.19585088371611
  C           0.38648213038947     -1.34884451892445     -0.62049426510224
  C          -0.98197788686414     -1.26765741119706     -0.83143274644155
  C          -1.79235729475232     -0.75306332329775      0.23494765443255
  O          -1.29041290999824      0.72054903665651      0.51448055227686
  H           1.01566149541004     -1.62730849069367     -1.45445764854967
  H           0.74098399438995     -1.72724954165594      0.33063991758554
  H          -1.35370408780231     -1.16172433839418     -1.83871621727457
  H          -1.65179792490430     -1.22907201719325      1.20581788959878
  H          -2.84121049860357     -0.60639530601112      0.00359508892850
  F           1.56709008675429      0.55224727200896     -2.53563401629831
  F          -0.48795156602557      1.10696308310214     -2.15596616806766
  H           1.04716101919393      2.21364076094696     -1.58352484189032
  H           0.34288730295616     -0.44940722451138      2.49359537583940
  H          -0.20072422137989      1.18739566369838      2.84782005181617
  H           1.47291091638002      0.90388238767796      2.32879201189061
