20
Coordinates from ORCA-job NEB_product E -33.581842103030
  C           1.75631416037729     -1.63412924803332     -0.40341208548636
  C           1.07460815453127     -0.74777063570399      0.63904996419471
  C           1.68702270231520     -0.98218678100184     -1.78670766984136
  H           2.82386504606009     -1.65158604777876     -0.14863616338112
  C           0.98269422755446     -1.34225137921054      2.01417243069527
  C           1.24409030898579     -3.08979884695882     -0.41795161593647
  C          -0.24781538243253     -3.21018884658255     -0.34247847691160
  C          -0.87459187645335     -4.01175523235267      0.49858105515412
  O           0.67210147578269      0.35339219700403      0.36925433208453
  H           1.58523707525455     -3.54465001059216     -1.35327762493961
  H           1.69758869064002     -3.64505572214440      0.40480210585590
  H          -0.80796709822408     -2.60641790940545     -1.04099359659654
  H          -0.34079623703649     -4.63373222257650      1.20048170496483
  H          -1.94743866997168     -4.09420170036551      0.51252675925866
  F           2.63528850302069     -1.52254686534486     -2.59775340544382
  F           0.50865883988804     -1.19575392140145     -2.40977902034628
  H           1.85313072421908      0.10451865118379     -1.74459557567640
  H           0.18179619943072     -2.08016999092384      2.02174140042839
  H           0.74711575198099     -0.56249333639580      2.73344775845515
  H           1.90909740407726     -1.83942215141535      2.28792772346800
