26
Coordinates from ORCA-job NEB E -39.855615867780
  C           0.05433121475887     -0.80915963189908      0.18662528207528
  C          -1.24236430221045     -0.90739493040457     -0.31919871564811
  C           0.27552346605248     -0.86955438869308      1.68355015905167
  H           0.80468062705493     -1.35802142213710     -0.37394544926448
  C          -1.41366631962834     -1.45074193169307     -1.73469095753585
  C           0.43716365997360      1.13839382898101     -0.23419342612287
  C          -0.77751717845830      1.69017431142969     -0.63259718440615
  C          -1.89959334800990      1.50719918469386      0.19531224104721
  O          -2.21014447960617     -0.18864548289660      0.13370395927035
  C           1.59711137309332      1.13560443141987     -1.18858965444017
  H           0.71093055187387      1.31999089972214      0.79664734048721
  H          -0.95664501049942      1.79811913723169     -1.69565629737668
  H          -2.85606941962131      1.88144542466956     -0.14170677774219
  H          -1.75416371439549      1.59843817938218      1.26523797888189
  C           1.74248671234734     -0.78489839604836      2.08775813738788
  H          -0.10902377285990     -1.84019467249467      2.01306550166478
  H          -0.31311284459843     -0.10713503000323      2.19521088930758
  H           2.31581002676200     -1.56207833307717      1.58723367483745
  H           1.83894632092367     -0.92903647094406      3.16134524671443
  H           2.18148137718280      0.17757974076311      1.83658795222454
  F          -0.75742615271177     -0.69213018212866     -2.66122756524483
  F          -0.87466097149020     -2.69172201799654     -1.84299541675112
  H          -2.47096045097064     -1.50115057780442     -2.02967644639319
  H           1.29020154995783      0.78471646861252     -2.17012291945521
  H           2.40675980765121      0.50903879168778     -0.82366117424348
  H           1.97992127742839      2.15116306962718     -1.29401637832592
