26
Coordinates from ORCA-job NEB_reactant E -39.895740009790
  C           2.06011926420777     -0.03292979596257      0.12141026362782
  C           2.35770608524534      0.92358689984631     -0.75598228305801
  C           1.49604478934267      0.21646378219874      1.48100913460971
  H           2.21627357089500     -1.06246864175567     -0.16136939506591
  C           2.92397499414234      0.58967663167264     -2.11760233179914
  C           3.35181050262788      3.88392283123832     -3.41796336104178
  C           2.52633663768146      3.67999337198058     -2.40409453409038
  C           2.95937242669109      3.23367574274936     -1.03754212686287
  O           2.10997595823056      2.23952519023790     -0.47279935545811
  C           2.93542043543314      4.35872662626851     -4.76805624899986
  H           4.41258166398438      3.70643319446219     -3.29068884666287
  H           1.46228855888753      3.84748898630309     -2.50823975468705
  H           2.87034113103831      4.07658248214571     -0.34121222850437
  H           4.00292582007930      2.90064151880090     -1.04684833444471
  C           2.25401029688353     -0.57338602331452      2.54560838617974
  H           0.44562827894075     -0.08882114166187      1.48924274544809
  H           1.53765758942693      1.28458943396016      1.69558130419647
  H           2.20060914808117     -1.64006925272383      2.33990478619465
  H           1.82691967536246     -0.38925190431260      3.52834733836018
  H           3.30060546873732     -0.27880665636558      2.56304779085505
  F           4.28942473629296      0.64322586520533     -2.12102286200833
  F           2.61209373558023     -0.67419316074696     -2.48713128678136
  H           2.56983428866524      1.27218202496111     -2.90534147172068
  H           1.85860706113713      4.49790711484934     -4.82075644987702
  H           3.23891481108454      3.63978384033931     -5.52857534237032
  H           3.42502307132099      5.30432103962411     -4.99842553603897
