24
Coordinates from ORCA-job NEB E -45.919978019430
  C           0.50902906533195      0.06644962257687     -0.66398476603960
  C          -1.04575018030146      0.47809278986989     -1.34215492307684
  C           0.68148496730361     -1.42263633280044     -0.48838228248204
  H           1.27573229484279      0.50404680423291     -1.31479922735947
  N          -0.93436321773328      0.09757333972831     -2.67232765227007
  C           0.40919088042862      1.01220361654872      0.51075562412765
  C          -0.13621056733325      0.38799519775949      1.75078401158407
  C          -0.47179195052978      0.80009312282255      2.92694540405571
  O          -1.86810771531948      0.97296286516287     -0.62307408230536
  N           1.83725008688855      1.84656803902434      0.83422470267952
  H          -0.32256932292389      1.80237158856620      0.35763630861014
  H          -0.33952485707133     -0.67222309399712      1.56141369015068
  H          -0.49003231042679      1.87956796786594      3.11004100587211
  H          -1.00510246980151      0.27806133582961      3.70662426468852
  C          -0.62513391770104     -2.20283342320229     -0.62955219281586
  H           1.11513893392987     -1.66632508500324      0.48493580984449
  H           1.37847462137092     -1.78473053037850     -1.25830231579809
  H          -1.47281333227043     -1.64596360746946     -0.17981110013161
  H          -0.64230234993329     -3.16850640065238     -0.12642411765918
  H          -0.92633240153973     -2.41414152226363     -1.66029472470362
  O          -0.91036296479115     -0.78305621924123     -3.42587101185428
  O          -0.59746819772814      1.44716958954527     -2.77761734996676
  O           1.71995634633536      2.84703475128107      1.47013608524667
  O           2.86160855897289      1.34022558419423      0.44909883960323
