24
Coordinates from ORCA-job NEB_product E -46.021676590040
  C           2.50812595933800      1.39323980396053      1.09884734701808
  C           1.45047337823594      2.06054860746989      0.28906008298430
  C           2.42952471473380     -0.13768350551519      0.89486088200983
  H           3.48477080962492      1.72862570795040      0.72004514927881
  N           1.69864620916800      1.96185130059097     -1.23933155423485
  C           2.37746357899923      1.83168434829109      2.57205090307568
  C           1.36537944318622      1.06484565293233      3.36886769292813
  C           0.16409192664927      1.53343792134852      3.64875709441355
  O           0.47378975591854      2.63802758694495      0.62930080780757
  N           3.72298707958708      1.76267524479512      3.22759681682834
  H           2.11292700879816      2.89744777496714      2.58323226125642
  H           1.67834948166775      0.09312382536125      3.72153419832956
  H          -0.16458969110348      2.50260061102749      3.31277662806504
  H          -0.54585410577792      0.95479748611755      4.21260941311956
  C           3.59874556887703     -0.86361676681275      1.54880945240014
  H           2.45737238055149     -0.34628313827154     -0.17521775144940
  H           1.48151848756357     -0.50631910522094      1.29078176986718
  H           4.54449005492728     -0.46219979929022      1.19280487180916
  H           3.55770068359832     -1.91833579323444      1.28946582941555
  H           3.57506201882904     -0.78919891096513      2.63263536885686
  O           0.75565925168065      2.23279232869998     -1.92950748443960
  O           2.80281695944692      1.63442942991421     -1.59957991574277
  O           4.66432894593134      2.13934764600977      2.57461669628688
  O           3.76542009956888      1.37506174292902      4.36508344011601
