17
Coordinates from ORCA-job NEB E -38.461811967150
  C           1.08257387250469      0.36630465340263      0.18826272704561
  C           0.28024228051684      0.61247782316853      1.30722681920611
  C           0.91335664878894      1.33648949853718     -0.96351674461751
  H           2.11973443161485      0.09567514779663      0.35396308061048
  Cl          0.84112537439254     -0.05945964234187      2.83228086651314
  C           0.20139958672054     -1.30141578854128     -0.40947903540782
  C          -1.13572136578829     -0.91617870605677     -0.51293697061217
  C          -1.80145463437153     -0.49773380500640      0.66350220123685
  O          -0.95881705977283      0.85217363605802      1.19902125369889
  Cl          1.03412718645398     -1.81137969070189     -1.84342121107344
  H           0.51726675076398     -1.87952335040417      0.45298640883645
  H          -1.51180082532292     -0.59706020014908     -1.47318418548340
  H          -1.68073687413438     -1.11390284435791      1.54887621416874
  H          -2.80118597750450     -0.10054915525416      0.54990069371443
  F           1.32750467660337      2.56906535036314     -0.57060404784536
  F           1.69701082987794      1.01097000119302     -2.00943047450204
  H          -0.12462490134319      1.43404707229436     -1.31344759548898
