17
Coordinates from ORCA-job NEB_product E -38.503972549010
  C           1.75405075741143     -1.67162712081897     -0.41390240604170
  C           1.10772394786396     -1.10435360936245      0.83025414104031
  C           1.56179362396588     -0.68063160279167     -1.57780148510941
  H           2.83381987401593     -1.73992421684260     -0.23604196679141
  Cl          1.78567998526840      0.46104650097702      1.27144570359477
  C           1.20466181310775     -3.08898728830571     -0.68556799022876
  C          -0.07106497865848     -3.12240879143831     -1.46173046942690
  C          -1.22509817814664     -3.47164979923126     -0.92526533453175
  O           0.26589703628747     -1.59889177012987      1.49532677190572
  Cl          2.46199451202991     -4.02627728482561     -1.57046935949324
  H           1.07528174208022     -3.59111642121358      0.27710005479893
  H           0.00465368733086     -2.85368780300818     -2.50528220691196
  H          -1.31041689338667     -3.74119062519286      0.11412554072470
  H          -2.13095101297283     -3.48322159432926     -1.50493300485012
  F           1.97194826599344     -1.20632551595956     -2.74595495585012
  F           0.25859972996745     -0.35731648434400     -1.73771593044045
  H           2.11862608784190      0.25516342681688     -1.41298710238859
