17
Coordinates from ORCA-job NEB_reactant E -38.490493780730
  C           1.71138565412461      0.05029520555377      0.01607715168360
  C           1.03833301512033     -1.07052310577393      0.30320700660859
  C           2.15566454711391      0.34972063623824     -1.38050819015592
  H           1.95535395035406      0.75835696175857      0.78485118914065
  Cl          0.54376922963257     -1.36073730982704      1.93869270907248
  C          -0.03317827727934     -5.16177184168777     -1.69036848812479
  C          -0.28083861872710     -3.86960656208266     -1.55778199228334
  C          -0.04174161728705     -3.11939627555270     -0.28595144583340
  O           0.73504607770634     -1.97388253025248     -0.61281309939364
  Cl         -0.33592892185351     -6.01917507784024     -3.14097560076657
  H           0.35731235362961     -5.77871410049243     -0.89463224920586
  H          -0.65716487478232     -3.27942050994974     -2.37924965106761
  H           0.48771898005844     -3.74053504107219      0.44584793801033
  H          -1.00055381223328     -2.79986989296507      0.14590541773239
  F           3.02125809388040     -0.58771607414315     -1.85092985328964
  F           1.11425775038538      0.35189686971525     -2.25459228292891
  H           2.65460647015696      1.32737864837358     -1.45947855919836
