21
Coordinates from ORCA-job NEB E -32.887262843430
  C          -0.56583726653378      0.69451291579830      1.00020354394253
  C          -1.32228951383868     -0.41571970225999      1.40666415415926
  I          -1.63072964217130      2.53824010561428      0.67739686399456
  H           0.29704511574363      0.91565570127736      1.61640862783312
  C          -0.73571470940956     -1.28657915792347      2.35143433192641
  C           0.07552427286023      0.16166533417572     -0.73404011584454
  C          -0.78693131997508     -0.86312211770663     -1.15388398802874
  C          -2.19930612530514     -0.67625668780446     -0.84299383503638
  O          -2.27438051068969     -0.91664680131318      0.62676212274114
  C           1.55135028103624     -0.15282307729031     -0.60751959007608
  H          -0.10545368927182      1.12720450205756     -1.19589077538728
  H          -0.43067358232477     -1.88398035320984     -1.06154379889467
  H          -2.86966567263399     -1.43308849561885     -1.24361864073749
  H          -2.58013180217588      0.32392293975534     -1.06011270664302
  N          -0.30164866869346     -1.94250426204330      3.19042258719340
  C           2.41098816594347      1.09610246170032     -0.45247561710719
  H           1.86342618624273     -0.68841700704975     -1.50780946855477
  H           1.71010960709775     -0.82634998124494      0.23915381336562
  H           2.28446430491919      1.75366978991161     -1.31000603878996
  H           3.46086225110072      0.82315612131675     -0.38377612040345
  H           2.14899231807919      1.65135777185746      0.44522465034751
