21
Coordinates from ORCA-job NEB_product E -32.930434800910
  C           2.57940955801610     -0.13042734965314     -1.24881029514205
  C           2.35328715360747     -1.28944772036033     -0.31523102854130
  I           0.70315878680637      0.92752734397524     -1.46490507862443
  H           3.27785880479742      0.57929295638342     -0.80138497920604
  C           3.58592191746062     -1.73921789378340      0.31725010949094
  C           3.10657364280979     -0.57435559000187     -2.63138068066190
  C           2.21185783378142     -1.63173218758843     -3.21256442333603
  C           1.39037675936194     -1.42600027206938     -4.22398146252692
  O           1.29241019379622     -1.79571062036860     -0.07259489758384
  C           4.55621950693531     -1.08166643617057     -2.58088424430385
  H           3.08056762461522      0.31000131358827     -3.27878907260437
  H           2.27136482600433     -2.60332897890037     -2.73799175546338
  H           0.75720856634139     -2.20619658878156     -4.60853268188920
  H           1.31206573002535     -0.46513414404103     -4.70622818549699
  N           4.54079566048586     -2.06584745550768      0.85701780068751
  C           5.56242442531614     -0.03716823342178     -2.11022702808347
  H           4.81524046871818     -1.38541332826711     -3.59820991830872
  H           4.62574075955486     -1.96980528484303     -1.94924513782503
  H           5.44317804730350      0.89072678461642     -2.66603232627670
  H           6.57237566588380     -0.40393349724259     -2.27322600267346
  H           5.45906406837869      0.17263718243752     -1.04784871163080
