15
Coordinates from ORCA-job NEB E -30.632180522100
  C          -0.01152256022429     -1.22446084521033     -0.88488982481575
  C          -1.28234734083670     -0.96387494595135     -0.40000403607064
  Br          1.13222905512176     -2.32917905920450      0.14792370569440
  H           0.14127209495473     -1.35653964437416     -1.94712813345029
  F          -2.14025091038392     -0.49159745689156     -1.37676609819593
  C           0.79582395309710      0.68458053459700     -0.49747315078851
  C           0.45491527118731      0.79098213710895      0.85047236466566
  C          -0.87886584656206      0.90005549114062      1.23703351166222
  O          -1.58252768393836     -0.71126122971082      0.77633044431704
  O           2.06105993989752      0.54910008623126     -0.92099048119539
  H           0.18521693743284      1.16944038497731     -1.25157887091473
  H           1.17823677426101      0.44291216127277      1.57757679279007
  H          -1.55906459670692      1.47523545103121      0.62383046950223
  H          -1.11525858120580      0.88914669252877      2.28916640874368
  H           2.62108349390577      0.17546024245485     -0.22350310194406
