15
Coordinates from ORCA-job NEB_reactant E -30.657109046210
  C           2.18705585234777      0.62722831207097     -0.50550126737174
  C           1.42056250946012      1.71124837914775     -0.58413635632983
  Br          3.38270997550756      0.16794265647162      0.87144545148836
  H           2.14049038602637     -0.10211707154680     -1.29520297562348
  F           0.63120193023813      1.78184932815854     -1.67687882953140
  C           3.83931637737114      3.78020634241590     -0.32335331546917
  C           3.45279520348258      3.38704390297060      0.88335230633252
  C           2.02400093596592      3.12099764538201      1.25617820158546
  O           1.19314608563464      2.79402785729393      0.14957155830664
  O           5.10873666039627      4.01557171775979     -0.70779681883145
  H           3.14614580186474      3.94687500560136     -1.13614106341910
  H           4.17258118299592      3.23178974289512      1.67426288738075
  H           1.55431316706581      4.02244012928100      1.66589182696180
  H           1.97134181229125      2.33524534047243      2.01793076357893
  H           5.71560211935178      3.85285071162577      0.02637763094171
