15
Coordinates from ORCA-job NEB_product E -30.669068114650
  C           2.84608067403564      1.58414636687569     -0.73542845200445
  C           1.37857525750931      1.48534909243357     -0.48351335883107
  Br          3.73230945727441      0.08523481407729      0.12833370980315
  H           3.05527667558035      1.50957301197629     -1.80657368884022
  F           0.72918329050458      2.42419661892004     -1.23311585197307
  C           3.41543606313830      2.93753983377034     -0.20235415650769
  C           3.10367471431666      3.07357372745102      1.26392096172142
  C           2.11081294073144      3.80216509013422      1.73568017325004
  O           0.76944391993039      0.77800347726366      0.23002440430731
  O           4.77181219751862      3.04469625866888     -0.49394999309607
  H           2.92423879236375      3.73555045268216     -0.77250039408792
  H           3.75170183830148      2.51240767699962      1.92473602137059
  H           1.46029573177173      4.36795153345843      1.08863067961331
  H           1.90678297685316      3.86139465035076      2.79026310942342
  H           5.27037547017020      2.41891739493801      0.05124683585123
