18
Coordinates from ORCA-job NEB_product E -34.483919853090
  C           1.68050991799349      0.64081376828239      1.94634688889133
  C           1.25371972756195      1.31451179250171      0.67796210968261
  C           1.41087003702824     -0.86139245751474      1.89549702356172
  H           2.75543125166488      0.79908546746488      2.08867517163128
  F           1.78056293852909      2.57370478224966      0.61023230772508
  C           0.95132706867346      1.31505262630539      3.14062681998701
  C          -0.54159137261029      1.16904248958426      3.00420505176895
  C          -1.33167208913111      2.12639113030272      2.55771035918693
  O           0.54794440193247      0.93929813378724     -0.18545631446781
  O           1.44286783382621      0.69721908179506      4.30948997647790
  H           1.21895101118494      2.38416131689774      3.13422804011013
  H          -0.93335216465590      0.20823941789140      3.30721947577886
  H          -0.94631915064913      3.08740485824394      2.25769659442944
  H          -2.39399709592279      1.98665945478049      2.46230023817100
  F           2.35440292840632     -1.47095472529235      1.11060416866649
  H           0.43561020833869     -1.07937122455402      1.44998402187008
  H           1.49864466973164     -1.29202535245868      2.89665794411593
  H           0.99728987809785      1.07595943973290      5.07462012241306
