21
Coordinates from ORCA-job NEB E -32.454914474840
  C           0.03628168413582     -0.66655853141357      1.14551027913040
  C          -0.54683587084043     -0.71492728077119     -0.11665573026780
  C          -0.71737226611695     -0.06856078833472      2.30241101849841
  H           0.62925226510847     -1.53784630930462      1.39760959556210
  O          -0.11126877422797     -1.71270512621165     -0.93137487330570
  C           1.39539205724625      0.84634364829351      0.72795319446885
  C           1.06242174856548      1.38241265398687     -0.50067737762506
  C          -0.30540558570976      1.72039244305054     -0.67847012248065
  O          -1.16412789497881      0.28812202184458     -0.63993142880238
  I           3.33219761711467      0.01620767695981      0.97873796690520
  H           1.09144850161890      1.36136467917852      1.62464762165758
  H           1.61520035864940      1.06801650853226     -1.37639480926305
  H          -0.59875784715119      2.10532351190222     -1.64727665781969
  H          -0.78364323144620      2.24621359418141      0.14187193961614
  H          -1.28046825269818      0.81021537683553      1.99798832889911
  H          -0.04669928277430      0.19180355452507      3.11886349715186
  H          -1.42483332846011     -0.80672671042146      2.68192476567302
  C          -0.47981526224143     -1.63673840215332     -2.29516619762409
  H          -0.10911411622648     -2.55050019699727     -2.75325069456020
  H          -0.02790925633438     -0.76728543261003     -2.77876238154862
  H          -1.56594326323279     -1.57456689107251     -2.39955793426546
