21
Coordinates from ORCA-job NEB_product E -32.525985988210
  C           2.63083751294231      0.70963241773482     -0.32432160883051
  C           2.16027876936624      0.14701569834482     -1.65755581197866
  C           1.43675624909387      1.24350438005736      0.46669407843549
  H           3.11730019830238     -0.10371673768063      0.22327714987627
  O           2.68429573129041     -1.05941156814389     -1.86501551875691
  C           3.64444467235153      1.83252753766975     -0.55457681506339
  C           3.09744622692954      3.00791905865582     -1.27617373031409
  C           3.27393882195057      4.25249521776122     -0.86806854261968
  O           1.42353993107601      0.70769436410749     -2.42467874030736
  I           5.34997339022691      1.04793185064966     -1.69286839741312
  H           4.08219078190147      2.13252634147057      0.39911130514003
  H           2.53860429976707      2.79004251877569     -2.17543824083507
  H           2.86676159458124      5.08786572817486     -1.40998871743410
  H           3.83382700103213      4.48684918821379      0.02364779949330
  H           0.88581502818832      1.96439806736792     -0.13269853815840
  H           1.77262226776226      1.72853134376855      1.38055350516912
  H           0.76814530002083      0.42747177290504      0.73039417293926
  C           2.38955647443288     -1.68529453049108     -3.10687714680472
  H           2.62597429113743     -2.73892053593866     -2.98377981748308
  H           3.00605097700785     -1.24994493421130     -3.89565179289140
  H           1.33614048063873     -1.54791717919182     -3.35768459216297
