17
Coordinates from ORCA-job NEB_product E -41.866392771650
  C           2.15324795962105     -2.01842700032679     -0.14539452266576
  C           0.85353016235854     -2.45201585931038      0.54907278473627
  F           1.93439903726908     -0.76044828300449     -0.66141468125430
  H           2.99027340341305     -1.93389386772319      0.55612950003463
  C           0.88209074647852     -2.38868559553601      2.07935507835779
  C           2.46422562622706     -2.97069463978975     -1.29816641466965
  C           3.70122180052599     -2.59434914978047     -2.03385643132459
  C           3.73320860671560     -2.39949425040663     -3.33921233594253
  O          -0.12956966525614     -2.75029038603181     -0.05530570105405
  Br          2.67439807502177     -4.75869171643342     -0.49228319320515
  H           1.59773990804894     -3.03873110001179     -1.96013079663289
  H           4.59055044591751     -2.49679488948929     -1.42607019754511
  H           2.85305447993776     -2.50172660607043     -3.95230321330233
  H           4.64211583520529     -2.12355426190939     -3.84370302035924
  Cl          2.25956572132015     -3.29620943093674      2.73121751609789
  Cl          1.06189666568769     -0.65617368575994      2.47144835553081
  Cl         -0.61994880849188     -3.01121927747947      2.75911727319822
