22
Coordinates from ORCA-job P E -36.934120342570
  C          -1.35140441984466      0.34998349773009     -2.37989607821075
  C          -0.09638235080807     -1.69184823999207     -1.07554095712076
  C          -1.48585329430152     -1.92538558490425     -1.57260621801149
  C          -2.10117218702282     -0.93746778191461     -2.20219708340800
  C          -0.73568437914622      0.79079547683899     -1.03905725419968
  C          -0.02371423244727     -0.36067767460047     -0.30326963374612
  H          -1.95237709950097     -2.88207555533545     -1.40370094637474
  H          -3.10154973603639     -1.01417545021049     -2.59584208318504
  C          -2.25356374025528      1.44708794747634     -2.92776029281721
  H           0.24037976230392     -2.50198519679316     -0.43013387226399
  H          -0.54336505950005      0.19990869558548     -3.10755246296314
  H           0.58536558652354     -1.63932026949513     -1.93075675242653
  H          -1.53801440829714      1.18107939146567     -0.41040315540579
  H          -0.50840953412402     -0.51903948007536      0.66481014757468
  H          -0.03802175576981      1.60896831738817     -1.22513518830055
  C           1.43338374208516      0.00645503113438     -0.02931681037858
  F          -1.56547947054188      2.60602072817962     -3.09193405535065
  F          -2.72665119513458      1.11923739615292     -4.15465749645317
  H          -3.11930019438014      1.66350074912991     -2.28206558664567
  F           2.03839830109022     -0.96648047751141      0.72826054046184
  H           1.51093786950619      0.93785185298580      0.54120981413281
  H           2.00957779560177      0.08605662676502     -0.95738457490748
