22
Coordinates from ORCA-job TS E -36.823459915630
  C          -0.78162743428276      0.33803453438182     -1.18593274981719
  C           0.55635995618201     -1.84442424152628      0.08826771757605
  C          -0.77885642778586     -1.85109221300888     -0.14051156450856
  C          -1.43946893175940     -0.78585388733507     -0.79066595908264
  C          -0.06574089043583      1.01836790744052      0.87871527128677
  C           0.71882161848350      0.05799143604326      1.42736148496249
  H          -1.39883288438790     -2.59325406690216      0.34259508487711
  H          -2.52121601940334     -0.78353670118028     -0.78213905148126
  C          -1.53090941391547      1.49385104430228     -1.76967537460971
  H           1.01199246556188     -2.60740054644359      0.69644191148486
  H           0.26271440114813      0.31756017994518     -1.45050628690187
  H           1.23054563739251     -1.29624308794397     -0.54263672418922
  H          -1.09033255390226      1.12249508697654      1.18656289661931
  H           0.33480926329531     -0.59997779086257      2.19054506593956
  H           0.37407241200639      1.86389153304331      0.37940234064631
  C           2.21441224372647      0.17007105631797      1.37354681580705
  F          -0.83869842312628      2.65454114903003     -1.63517089060238
  F          -1.70196278100052      1.33186464841568     -3.11429409239257
  H          -2.52943632790269      1.64571747338747     -1.33095107881093
  F           2.83244326280223     -1.03211612768025      1.61746624983268
  H           2.56780302095050      0.85230049045234      2.15942031773911
  H           2.57310780635334      0.52721212314665      0.40215861562505
