20
Coordinates from ORCA-job NEB_reactant E -45.588108717250
  C           1.77622403287899     -0.02809091194047     -0.02390594721506
  C           0.94563187912069      0.33609803079124      0.95813327391452
  C           2.46258332305098     -1.35789360027445     -0.00000934827863
  H           1.97227425872198      0.62645091468751     -0.85234367307562
  Br          0.12155769443916      2.05889722188835      0.85169356024014
  C          -0.17145986285645     -1.01816268493945      5.31682996533178
  C          -0.30071601312953     -1.14468911707389      4.00802175745588
  C          -0.17702541389433     -0.00793754066551      3.04610347765058
  O           0.66474059626202     -0.43779116740204      1.98855012931996
  C          -0.32118100112707     -2.15808696812677      6.27848023568868
  H           0.02685430300416     -0.06997262377558      5.79519717627436
  H          -0.49735108882826     -2.10646344377246      3.55601636446265
  H           0.24404878803095      0.87977774607573      3.53425035716932
  H          -1.17200404276250      0.24376330668699      2.64915537146620
  F           3.24793061707141     -1.49757813538002      1.10199770128818
  F           1.57381527247020     -2.38430928518797      0.05499794695926
  H           3.09900432800706     -1.51596070513382     -0.88299839609189
  F          -1.17825026206214     -1.82381596905774      7.27887368401282
  F          -0.83242713372722     -3.26293601226394      5.69219704917122
  H           0.63554972532989     -2.44069905513570      6.75215931425567
