27
Coordinates from ORCA-job NEB_reactant E -43.956576622100
  C           1.44546587874733     -0.01626584461746      0.48243043368330
  C           1.31908353160390      0.95763760307585      1.38283316814494
  O           1.42894977629792     -1.37165367608252      0.73004460804797
  H           1.54480976653164      0.25797083283972     -0.56191512987225
  C           1.21603904323432      2.39758308689002      0.95252251164549
  C           3.35089054588534     -2.00451097945093      3.11741645556469
  C           2.91141527994178     -0.76382963296780      3.23655986602796
  C           1.46603923492214     -0.38674204424122      3.35669823205583
  O           1.18822274643163      0.85184712615919      2.74535713692222
  C           4.79826268833090     -2.36888474933226      2.99953033769903
  H           2.68117525491521     -2.85007567156045      3.07310692771319
  H           3.60435904473725      0.06734067533422      3.25444026542027
  H           1.22312969360525     -0.22649788293424      4.41441403383787
  H           0.82640457989296     -1.18004341442614      2.95655517169167
  C           2.19259498362638     -2.13415324231678     -0.17404087589805
  H           3.26485203664758     -1.95868935636723     -0.03947282852021
  H           1.92131087160878     -1.90582234806174     -1.21090919804355
  H           1.97083874492642     -3.17884268251151      0.03633980271155
  C          -0.24350851282061      2.84757578900070      0.88484929060417
  H           1.68835701404874      2.52451990170113     -0.02150091453891
  H           1.74569033896011      3.01080853924723      1.68292424555323
  H          -0.78738667002333      2.25540248642888      0.15289948095160
  H          -0.30401870234814      3.89563209875507      0.60154731273617
  H          -0.71681728938641      2.71985829132769      1.85451806184646
  F           5.03313333293596     -3.02683738311009      1.82815812278370
  F           5.60888589580685     -1.28492694788979      2.98547597963991
  H           5.14272089094010     -3.03250057488955      3.81181750159175
