27
Coordinates from ORCA-job NEB_product E -43.961679040730
  C           2.54974245971759     -0.49129829311721      1.01982509701256
  C           1.30100387650541      0.40567458067889      1.00187127702786
  O           2.37904436561905     -1.66700701826002      0.27331747073065
  H           3.41162285845194      0.08543393773090      0.63878888070142
  C           1.59298208271490      1.87936319065157      1.18514040324734
  C           2.81380134283072     -0.88160822666067      2.49568239850344
  C           1.84818189732355     -1.94102874362158      2.93995831910531
  C           0.96905461096077     -1.76460386355422      3.90652780579651
  O           0.19714145083309     -0.04139392078433      0.84617209248589
  C           4.25803462057181     -1.35715120241949      2.67507139308349
  H           2.70987908013767      0.01104892536049      3.12211904956509
  H           1.90656963690770     -2.86361096657530      2.38376855229191
  H           0.89487973855713     -0.83705280147442      4.45160961740417
  H           0.27962079649586     -2.53992932399983      4.18993703521928
  C           2.34814105042860     -1.45922294898769     -1.11554060004805
  H           3.26480517112593     -0.96387251477345     -1.46106055188408
  H           1.48113133651599     -0.86138068850120     -1.41667450624169
  H           2.27908463813779     -2.44697259482739     -1.56530249474418
  C           0.36639424009479      2.65237143647285      1.65228802165342
  H           1.91747187408442      2.25350812787331      0.20885954061164
  H           2.43014328910323      2.00908815181605      1.87352302377052
  H          -0.46402760798009      2.47429805094514      0.97448124394973
  H           0.57567454038613      3.71830197187536      1.68410779161913
  H           0.06832700189729      2.32354547057061      2.64476047695075
  F           4.60529699401198     -2.33428802434827      1.81760631654603
  F           5.11783195866973     -0.32732869952274      2.43983125574621
  H           4.45006669589701     -1.71978401254739      3.69763108989565
