20
Coordinates from ORCA-job NEB_product E -48.620491059040
  C           2.51009525229130      2.21296601260146      0.09343672555888
  C           1.16724808929397      2.39993646364532     -0.71653340047795
  N           2.51283719718271      0.78149657843232      0.44709549490361
  H           3.34023846180224      2.37033137129065     -0.60531045484310
  O           1.10447879406923      1.66487834037398     -1.80355375133054
  C           2.59899742882688      3.17469392442923      1.28412293667137
  C           3.32363794513556      2.59953320093391      2.47600473430821
  C           2.86089626699352      2.68538455974958      3.70790321218083
  O           0.31484891575602      3.13920533766632     -0.34195153509892
  C           3.32705385916586      4.45649142378175      0.84473802611916
  H           1.58220047558006      3.46368975287455      1.57771168446619
  H           4.28550553884273      2.15248514544903      2.27107690910517
  H           1.90707997692757      3.13362198095608      3.92854507986560
  H           3.41425204994457      2.29387594344516      4.54231277108861
  O           2.73475901905361      0.04432630604152     -0.49907067825232
  O           2.24049757422662      0.43115067026746      1.55804243527730
  H           1.79787092929832      0.96929818829140     -1.85352195043167
  Cl          3.33243307935391      5.62974956031209      2.17157288701317
  Cl          5.01957347963385      4.09719347939619      0.40335861999168
  Cl          2.54699566662146      5.20899176006200     -0.57157974611528
