20
Coordinates from ORCA-job NEB_reactant E -48.605431891440
  C           2.34962988820490      0.90510177597116      0.16394736855213
  C           1.11920994111633      1.45629167640915     -0.03935146005089
  N           3.10795086592105      0.85295840148740      1.33817816827384
  H           2.83879307400833      0.41525912718884     -0.66548288176721
  O           0.46633882452828      1.21711441075020     -1.18594406279245
  C           3.30378050024541      3.99668300924633      1.82566530269651
  C           2.17439004152831      3.85599895647351      1.14931076177811
  C           0.98151565590361      3.12545250093423      1.68268669773313
  O           0.39540317875532      2.27638533338112      0.69827484342751
  C           4.51525640589184      4.70948083255527      1.34515784842287
  H           3.41561998718686      3.57455260721177      2.81561916472505
  H           2.06197489031857      4.26429976387289      0.15401115713972
  H           0.17967745561865      3.83218455463766      1.91784864985659
  H           1.24409482507109      2.55157356193406      2.57833237445670
  O           4.29372197993972      0.60887347691157      1.21549787079602
  O           2.55385284022534      1.00501601685761      2.41814444780932
  H           0.89121908992830      0.52816747651202     -1.71309283297269
  Cl          4.86987524726655      6.06793030045846      2.45270065816669
  Cl          5.90248080779124      3.57851937742243      1.36440621708465
  Cl          4.35051450055029      5.36255683978429     -0.28991029333560
