22
Coordinates from ORCA-job NEB E -32.567593489740
  C          -0.66192889283906      1.18199363600399     -0.66177900268740
  C          -1.99020565540078      0.93246022482233     -0.28322544359362
  N          -0.12374039452119      0.57195178545384     -1.79984504469716
  H          -0.26206963590326      2.16846412890186     -0.46058272370225
  Cl         -2.61383651128740      2.03353951150957      0.98226477327850
  C           0.15173429807772      0.09106723473783      0.84469407764368
  C          -0.43028047027484     -1.14797121793816      0.59968371752671
  C          -1.81129286363680     -1.30848893873027      0.80429529998014
  O          -2.51559126702491     -0.20761121152669     -0.35962650767259
  C           1.63829803964010      0.32782996229887      0.73123901174557
  H          -0.29634262477201      0.68515931814074      1.63675765215896
  H           0.06772543533144     -1.83640483075080     -0.06550522015110
  H          -2.25299395885725     -0.85268095985593      1.68252761295579
  H          -2.27167136093624     -2.24171037840635      0.51409463202552
  H           0.13418408793150      1.21725194558909     -2.53157518891371
  H          -0.70642133834468     -0.18090899177536     -2.14260601072958
  C           2.37628395902151     -0.58243724566292     -0.24208381136136
  H           2.05452663131779      0.18937614521517      1.73494126982359
  H           1.81799255441035      1.36953198899056      0.45894297802998
  H           2.35695072391026     -1.61329402942486      0.10162416481641
  H           3.41566590959479     -0.27108210385361     -0.31709020904090
  H           1.92301333456296     -0.52603597373893     -1.22714602743518
