22
Coordinates from ORCA-job NEB_reactant E -32.592868575950
  C           1.06065899315249      0.28114681760544      0.09935802937327
  C           1.84859981342184     -0.03332227957416      1.12979966973612
  N           0.17789542617103     -0.61110198407973     -0.48745385654658
  H           1.12657491165564      1.25565023679261     -0.35630428463822
  Cl          3.02083825982476      1.13832339344584      1.70081926433144
  C           4.76125215687451     -1.98298775285376      2.97594716756037
  C           4.18789490807192     -1.75108467724624      1.80598075737055
  C           2.79396234650916     -2.18670928910014      1.47099881624882
  O           1.79481977644080     -1.20279773500533      1.80682813381782
  C           6.13422024596394     -1.53446589263422      3.35477281348285
  H           4.22893382707972     -2.54523659546192      3.73323498121288
  H           4.70505921215089     -1.18060861840153      1.04664639672394
  H           2.50506701065171     -3.05580584664022      2.06628695388218
  H           2.70976325286608     -2.42324239383678      0.40247464671431
  H          -0.66499783005354     -0.19358332103984     -0.85175230382072
  H          -0.00230401793723     -1.42589528113970      0.08334472218454
  C           7.01723259952931     -2.72027151209463      3.74158099452063
  H           6.05842046737003     -0.85433497343465      4.20813571253552
  H           6.58741706436688     -0.98726458728767      2.52649717900936
  H           6.58347182830016     -3.26276787680667      4.57877089898208
  H           8.00836073121372     -2.37771838137960      4.02920930779019
  H           7.11785901637617     -3.40592144982709      2.90312399952866
