23
Coordinates from ORCA-job NEB_product E -42.298771958360
  C           3.34939927155894     -0.22851676696979      1.56785989154541
  C           1.87129728645255      0.15432884548198      1.52193242017193
  I           3.86466419405367     -1.06833102659589     -0.35796222781155
  H           3.95728803743377      0.67237244244827      1.66355986227400
  C           1.38328276125564      1.09717399028187      2.59915746769743
  C           3.56945875762372     -1.14741036700607      2.77744166928763
  C           2.83203974054267     -2.44958200341537      2.63225926297562
  C           1.97358093572302     -2.90246866810069      3.52559723272440
  O           1.13535090046073     -0.29323430479415      0.68800159773541
  C           5.02820083359429     -1.41534856620051      3.16099209982047
  H           3.15417563081111     -0.60464298713981      3.63933743483885
  H           3.04544405605550     -3.01306921309074      1.73458682242740
  H           1.74402709202020     -2.36484231008584      4.43200290993139
  H           1.46588923775824     -3.84010942982053      3.38643482632719
  C           2.34440755083697      2.20876350860734      3.00999078443262
  H           1.12254396265142      0.48505641836305      3.46872796119017
  H           0.45068205392063      1.53008800073929      2.23035600035877
  H           3.22293438051799      1.83084921420582      3.52785668669043
  H           1.83358330971470      2.89144783283271      3.68440814678435
  H           2.66869870040088      2.77683567110679      2.14115825672657
  Br          5.03981720739871     -2.16058292475172      4.98726950498153
  Br          5.97261646285320     -2.68465258171352      2.03944290603012
  Br          6.07501763636147      0.24487522561749      3.23348848285986
