17
Coordinates from ORCA-job P E -22.442627765240
  C          -1.58793063834238      0.78446009769686     -1.79317165479982
  C          -0.60059971582538     -1.38515002469033     -0.44928511305179
  C          -2.07757739289097     -1.30132948972219     -0.66989117282452
  C          -2.55542708878741     -0.25897250010529     -1.33154623349096
  C          -0.67464224381173      1.18761675441596     -0.62708684235253
  C          -0.06472136351887     -0.03784643251883      0.09311311795852
  H          -2.70474212839552     -2.09097574568408     -0.28765979470171
  H          -3.60709126626227     -0.12810914164192     -1.53067197119709
  H          -2.10288437382764      1.66637062884195     -2.17396611369167
  H          -0.34148130757358     -2.18683890011859      0.24287724604589
  H          -0.97280467344448      0.37775832319116     -2.60233682311476
  H          -0.10610137109168     -1.59443753069151     -1.40420563678155
  H          -1.26330881851980      1.76320247262190      0.08937862764627
  H          -0.29769371145568      0.01769643683340      1.16255789219674
  H           0.12135604622955      1.83707776733210     -0.99781250082527
  C           1.37185870490116     -0.02396755601212     -0.03530933510794
  N           2.50995134261669     -0.01943515974844     -0.14710369190779
