17
Coordinates from ORCA-job R E -22.345472444500
  C          -1.25536178352418     -0.06932046233296     -3.36241490061844
  C          -0.26564571380632     -2.58638277862166     -2.00837495714126
  C          -1.53528316299734     -2.22517999985927     -2.16375542534810
  C          -2.01131086676550     -1.03686211968640     -2.85286326395439
  C          -1.07469764303510      0.78744675953561     -0.17060386438380
  C          -0.06148060321542     -0.02350474892806      0.11108174687177
  H          -2.31465873762821     -2.85964268700244     -1.75898801175980
  H          -3.08832062351167     -0.96202522789965     -2.94150965502059
  H          -1.69041210863032      0.77834237608883     -3.86417485000170
  H           0.00242064115806     -3.48756884429048     -1.48385215226403
  H          -0.18054644077447     -0.08335142358773     -3.30141815447121
  H           0.55285235396600     -2.00558252484415     -2.39724076893399
  H          -2.02755666074424      0.68782465531972      0.32059663598014
  H          -0.13854715358604     -0.81805838011514      0.84187198725879
  H          -0.98309649859268      1.57299488066694     -0.90211203919382
  C           1.18948738744538      0.08604219801732     -0.53040727816663
  N           2.20687761424204      0.16847832753954     -1.05278504885295
