18
Coordinates from ORCA-job NEB_product E -34.915328632960
  C           1.58015758417429     -1.64193262478406      0.39159308022489
  C           2.35683201805637     -1.48235262561573      1.70185980703272
  C           2.06109882314905     -0.69615681484956     -0.59196805590002
  H           0.52810382928922     -1.40806880556153      0.60152376340906
  C           2.43889089757092     -0.05345042516805      2.20962910050272
  C           1.67951778344706     -3.08531471878995     -0.15741871612062
  C           0.70656507011084     -3.29996596682892     -1.27731567956137
  C          -0.44058426585779     -3.93472344120635     -1.13365404083986
  O           2.85971206290204     -2.39803454943088      2.28506926918479
  F           2.96289296519916     -3.29385956323391     -0.61139034479809
  H           1.52578912230877     -3.79301122301245      0.66750274030793
  H           1.01470709774811     -2.87982923550702     -2.22431454514563
  H          -0.74280117518699     -4.35900441150225     -0.18975868914563
  H          -1.12467520846702     -4.05533464068087     -1.95482765728041
  N           2.46025820753412      0.02805656458344     -1.37836534179879
  F           1.40023853348070      0.70980252333602      1.75364727598888
  H           3.36952978640082      0.40167502620606      1.84697857368904
  H           2.41966686814033     -0.03379506795400      3.30390946025039
