18
Coordinates from ORCA-job NEB_reactant E -34.917442503780
  C           1.47707314465784     -0.16233731923546      0.06864886664727
  C           1.29532990308606     -0.94917741068450      1.14150845666540
  C           1.28652110309734     -0.47940553895622     -1.28235346984096
  H           1.81108758364817      0.85243832541255      0.23756523617230
  C           1.55497255897963     -0.43311071561420      2.53788118381107
  C           2.30275554589539     -4.76720012528407     -0.39394152334192
  C           1.91257157226554     -3.51481612191927     -0.53565196173025
  C           0.63615504795361     -3.00310876651931      0.05889816791486
  O           0.87143284504985     -2.22379343907715      1.22865476288465
  F           3.45072407740406     -5.21318000382687     -0.91303360843985
  H           1.76140867242131     -5.54796273068684      0.12235585817185
  H           2.52965438551597     -2.81257181954831     -1.07574739429055
  H           0.02069543190660     -3.83383963696199      0.41253185385673
  H           0.07643484134698     -2.42062777566575     -0.67945204198063
  N           1.15855846507996     -0.68068116891365     -2.40650582016794
  F           1.89442261261441      0.88787923077103      2.54309055797786
  H           2.38231250868943     -0.98809263924249      2.99561130447776
  H           0.65598970038786     -0.54801234404752      3.15373957121234
