16
Coordinates from ORCA-job NEB_product E -30.521449555940
  C           1.47536318861513     -1.54056243454015      0.87925387377717
  C           2.70787600659949     -0.64819634197139      1.07612115198785
  Br          0.98349776270378     -1.54495876459292     -0.98938270414526
  H           0.63486229818857     -1.10646995872739      1.43146790353782
  O           3.18360212044781     -0.66815841084018      2.31855559397552
  C           1.70437319359906     -2.98244624651977      1.36979279143658
  C           2.95732681548833     -3.55660644681382      0.76720487027976
  C           2.95419462893564     -4.38892461698869     -0.25609352949708
  O           3.18231644816917      0.01462632686927      0.20576720505138
  O           1.77646676345707     -2.90130776655911      2.79046989972431
  H           0.83490575400041     -3.58921089328443      1.07559545580217
  H           3.88071897179671     -3.21367007489144      1.21536326150931
  H           2.03755319115197     -4.72007441796666     -0.71573430231868
  H           3.86899785342818     -4.75616120270159     -0.68613266176846
  H           2.73165732872129     -1.34018476365298      2.87022752187127
  H           1.97778767469739     -3.77379398681875      3.14572366877633
