24
Coordinates from ORCA-job NEB E -36.533145116880
  C           0.31188086813698     -0.62137167738386     -1.14220841246379
  C          -0.20844788467888      0.39165220815971     -1.93659149364824
  O           1.65097198318877     -0.87389953669246     -1.19215467229318
  H          -0.32845702396322     -1.48031145566892     -0.95717102356250
  F          -1.60042860292843      0.29571588126934     -2.02785745979575
  C           0.18010023629406      0.49481328855317      0.69296063438251
  C          -0.21098545176526      1.76907702424404      0.32227392220864
  C           0.54655058013405      2.46622560853803     -0.62350984966093
  O           0.26561463908721      1.52040590558929     -2.14093126562741
  C          -0.64226646870004     -0.36323828995124      1.61876540971223
  H           1.25002458814275      0.33561427890563      0.77044210674916
  H          -1.24772498368772      2.05163540090109      0.43860968846332
  H           1.61869240483703      2.32753888218534     -0.63003327166344
  H           0.21119953665048      3.43436618607886     -0.96118272298321
  C           2.07002143281569     -2.05865708397122     -0.55560591409211
  H           3.12069354661538     -2.18426809743665     -0.80976130122775
  H           1.50267143385013     -2.92450745452798     -0.91226587148641
  H           1.96807589277053     -1.98821639615630      0.53280345604997
  C          -2.14656359930603     -0.29751222274777      1.37461266775580
  H          -0.42933075965854     -0.04074910471723      2.64452364328296
  H          -0.30998191654757     -1.40147782282664      1.54232030334747
  H          -2.54742152408749      0.67003481775708      1.66289822846226
  H          -2.65217321658133     -1.05889027590528      1.96413407787198
  H          -2.37271571061855     -0.46398006419603      0.32492912021840
