24
Coordinates from ORCA-job NEB_product E -36.585405160170
  C           0.37724135421380      0.22659871237105      1.95187112243599
  C           0.86478695951541      0.83028691470110      0.65884629750580
  O           1.35933554434564     -0.58319915093922      2.54387694309208
  H          -0.53921214935531     -0.34883401022096      1.73964682234714
  F          -0.19034711647153      1.11768606065260     -0.16847459978399
  C           0.06677653762380      1.38990459050474      2.92916712831696
  C          -0.89212387362513      2.36636859883251      2.31573085981075
  C          -0.68412467262066      3.66838142473183      2.27061838651290
  O           1.95857543855346      1.07532349006642      0.29799511365170
  C          -0.44819819901758      0.84434228605454      4.27389950492247
  H           1.02221972986567      1.88795145001669      3.12395297753732
  H          -1.79817779139486      1.94395493016926      1.90385915653072
  H           0.21428317264883      4.11368631961691      2.66588997637693
  H          -1.40084799912653      4.34370560949187      1.83652581969907
  C           1.62802977134432     -1.77598618881417      1.84355479030515
  H           2.34435819209205     -2.32435249075978      2.45117876046481
  H           2.06370294648306     -1.58108569615417      0.85864536165129
  H           0.71738838441074     -2.37554518941261      1.72092786712536
  C          -1.83599087384444      0.21684251517426      4.22494355949477
  H          -0.46214332397261      1.67773755693942      4.97904230731162
  H           0.27399582091401      0.10915969652580      4.63099188682196
  H          -2.58519781278804      0.94674988790200      3.92946046537594
  H          -2.09915949804957     -0.15705773708944      5.21168326015065
  H          -1.87047054174455     -0.62041958036064      3.53236623234261
