24
Coordinates from ORCA-job NEB E -47.233908172030
  C          -0.11237904878904      0.60939023581078     -0.93729414961599
  C           0.64014666094152      1.56925469641316     -0.20893673691407
  C           0.45726383492162     -0.21607404218388     -2.03809601548916
  H          -1.10714802179727      0.96334447446045     -1.20012789524673
  C           2.14657389479777      1.45265829839019     -0.04586843617955
  C          -0.72957359602805     -0.53785850804299      0.53979542447332
  C          -1.36975079384376      0.41186443246870      1.36214614588847
  C          -0.63122822673773      1.41889601868870      1.97216779039693
  O          -0.00115460246421      2.33639837874488      0.56872315313187
  O          -1.50821286094224     -1.45855653257366     -0.09871960059665
  H           0.24334518303904     -0.91611400682778      0.86690606483232
  H          -2.42425157589819      0.56202366184523      1.18033403215214
  H           0.34137678416208      1.18786139879332      2.38636153850445
  H          -1.16036732009220      2.20135356748283      2.49337825667299
  Br         -0.91438202342057     -1.24807755261498     -2.95191230004503
  Br          1.26787066005689      0.96174927654594     -3.42364703672715
  Br          1.85023852751622     -1.47021291983292     -1.49675824063895
  F           2.59871238919063      2.44812366550762      0.76862349075399
  H           2.67491288359409      1.55316854156299     -1.00110124756111
  H           2.42675187481809      0.50488510831810      0.43544745128437
  C          -1.21721871521991     -2.81772492089222      0.16401461420942
  H          -1.52130402053248     -3.08422027058570      1.18035428072858
  H          -0.15336769000171     -3.03997173695851      0.03958820644366
  H          -1.79685419727060     -3.39216126452024     -0.55537879045811
