24
Coordinates from ORCA-job NEB_reactant E -47.274820002480
  C           1.47883576042929     -0.41034894636803      0.06055014689916
  C           2.18109112256670     -1.37054608932094      0.68264283870404
  C           1.97141987679354      0.60733640053759     -0.88560526396185
  H           0.42801552119863     -0.31081351716154      0.29042438682958
  C           3.66288793341325     -1.63021215200189      0.55411127418368
  C          -0.41820819531226     -3.27986379626623      3.94205638455025
  C          -0.03745727594809     -3.44501557271113      2.67901176939609
  C           0.24677963889135     -2.28925700550824      1.77649937647258
  O           1.65263784691566     -2.27371220957619      1.52388914658473
  O          -0.70004040471607     -4.21597437254589      4.86242202227116
  H          -0.56697985807925     -2.29340766834105      4.36285445515264
  H           0.12744620216866     -4.41898494698827      2.24844580518260
  H          -0.05419198597577     -1.34793407447166      2.25121807989965
  H          -0.28632070808569     -2.40329098718321      0.82269237894967
  Br          0.44692007600439      1.34910747331368     -1.87484442338808
  Br          2.83872882891611      2.14578982672989      0.03347070074580
  Br          3.20840183643602     -0.05971870810188     -2.24303210916438
  F           4.38596124654947     -0.47199332917021      0.55404280459084
  H           3.89691629606864     -2.16120406108449     -0.37644238804349
  H           3.98704316908306     -2.22367018413297      1.41401618915540
  C          -0.55261695273739     -5.56948527060325      4.49324062113438
  H          -0.81504014735664     -6.15148887146676      5.37437610406575
  H           0.47872723195993     -5.78847009527744      4.20212699662860
  H          -1.22405705918353     -5.82814184229990      3.66923270316120
