24
Coordinates from ORCA-job NEB_product E -47.268637185180
  C           1.31571668781717     -1.25837946910933      1.29953858641221
  C           2.69000298279845     -1.14605713878964      1.99078599486596
  C           1.35362827648072     -1.36526792725207     -0.20980623784699
  H           0.79822141530591     -0.31845418305966      1.54072819844257
  C           3.75341776506533     -2.14923421570987      1.59969777061952
  C           0.53649785486054     -2.38061110427766      2.04758533785436
  C          -0.91874310184831     -2.42514860752287      1.65655291996748
  C          -1.85631720261840     -1.71672015274148      2.25633637458003
  O           2.84202562342723     -0.33518054456832      2.85931448221643
  O           1.18126597916971     -3.61152536556867      1.81128616404578
  H           0.60906930056910     -2.12365027498183      3.11994459293859
  H          -1.15292389633655     -3.10712238910531      0.85063678713721
  H          -1.62941438281943     -1.04526372671363      3.06860021466328
  H          -2.88509121684527     -1.76974377933852      1.94804933938908
  Br         -0.37361889049509     -0.88343077258291     -0.99375540807674
  Br          2.63074054426881     -0.03676281973751     -0.90935188919992
  Br          1.83966430354273     -3.08966234297090     -0.93135218030113
  F           4.80342937015235     -2.07837673531805      2.46599922687065
  H           4.15306399146865     -1.94665977555156      0.59904935476507
  H           3.34691121336594     -3.16677609947241      1.64246894877440
  C           0.79464255084530     -4.63666745532898      2.69819844585945
  H           1.05131986323843     -4.37242987755605      3.73024157552405
  H           1.34894272851954     -5.52153297283575      2.39406811106250
  H          -0.27915175993286     -4.83554226990703      2.63628328943619
