67
Coordinates from ORCA-job A2R E -96.924137545040
  Ru         -0.47227761402760      2.16113831179953     -0.42435073363640
  H          -0.25786289801965      0.68341408845484     -0.86013482086896
  N           0.65598498391734      1.66919290462737      1.26556532690821
  C           1.96649488222222      1.39730598363024      1.15184979065767
  C           0.08079732870993      1.56328712958605      2.47775880356488
  C           2.73178963534533      1.01748205840338      2.24668585463070
  C           0.78585676878602      1.15860105997132      3.59959196364512
  C           2.13815320733976      0.88202022332730      3.48720808546496
  H           3.77844517257088      0.80157917884833      2.10794556775286
  H           0.27567917043122      1.07032080842763      4.54613727469696
  H           2.70999064795887      0.56663458775557      4.34539981476709
  P           1.62070289200700      2.61009512861703     -1.28596273416141
  C           2.12077850481426      2.05081594201229     -3.02677766298818
  C           2.42536588580471      4.29401409387943     -0.89694717581320
  P          -2.13349481810923      1.64779889345431      0.92955693472371
  Br         -4.03362252615588      2.73402657971438      1.21728034372882
  Br         -2.90661940713187     -0.41852643628820      1.29492069911628
  C           2.58140067833731      1.45772271607214     -0.20875849356657
  H           2.45906705268229      0.46142915682076     -0.65302703774141
  H           3.64909260213402      1.68489020230579     -0.15472366989882
  C          -1.36580302172283      1.93708261454284      2.59195190876743
  H          -1.86522579546221      1.41403003313193      3.41517538100398
  H          -1.44354071364792      3.02080630626469      2.76624716035211
  C          -1.46529575619148      2.55502237029230     -1.93200798431993
  O          -2.09655282035860      2.79531936730577     -2.86593000694318
  H          -0.62673791756015      3.62023693545661      0.09798346470050
  C           3.58346577472766      1.62409615215301     -3.15794724346749
  C           1.24372696921539      0.84607152636939     -3.37284876839140
  C           1.78364245948706      3.16788813079789     -4.01574333721180
  H           3.79150113003953      0.74310944538123     -2.55558870989425
  H           3.77700819122177      1.36578968243492     -4.19887370619140
  H           4.27702194588719      2.40907501334070     -2.87877873003327
  H           0.19218743522172      1.12712123459907     -3.39688603482054
  H           1.51865649465060      0.46197505145501     -4.35460801992613
  H           1.35909267254507      0.04100650952979     -2.65067656500207
  H           0.78842320985137      3.56304781096648     -3.80597193166309
  H           2.50613521139130      3.97892851743072     -3.97646925362710
  H           1.78283282535654      2.77314269911908     -5.03122181914732
  C           2.39241351521294      4.44508819992775      0.62802092782485
  C           3.87175439309451      4.46150628842234     -1.35721864051839
  C           1.54933729928629      5.39086318692283     -1.50595550494483
  H           3.08409192008634      3.76259574314024      1.12008757714654
  H           2.67535280835275      5.46110133409831      0.90131482351783
  H           1.38709312343420      4.26954283245097      1.00957443710641
  H           3.95227925829267      4.49882014787483     -2.43964196546631
  H           4.25301344577493      5.40615934041387     -0.96912267253293
  H           4.51143364373698      3.66766186463069     -0.97606002531668
  H           1.68067653544322      5.46588342065930     -2.58094037712297
  H           0.49835646272644      5.18790279849219     -1.29998703498173
  H           1.80242895465461      6.35602201938273     -1.06905352370347
  C           1.23789559992109     -2.03770757135363      0.76586339367119
  O           2.30855655852996     -1.46321363776898      0.83190979174130
  C           0.64176894970196     -2.39991686245979     -0.53912178701849
  C          -0.70482588365418     -2.72460961621139     -0.69585966833038
  C          -1.20435035823682     -3.01089645576681     -1.95274085201556
  C          -0.37123323220715     -3.00072409438649     -3.05978829616145
  C           0.97306221096815     -2.69949299267475     -2.91121282893998
  C           1.47253396061415     -2.39226142017094     -1.66136762424401
  C           0.47407066915786     -2.42064739491737      2.00531549257751
  H          -1.37411404716097     -2.73098699268563      0.14952849139368
  H          -2.25288617147249     -3.24112577581199     -2.06687364902928
  H          -0.76874200003726     -3.22656249922382     -4.03820163523395
  H           1.62731366741284     -2.69585425871728     -3.77080499552265
  H           2.51882992357167     -2.15421713087924     -1.52615010521044
  H           0.23136298285118     -3.48023860218530      1.98280818172925
  H          -0.46044353724450     -1.86606466012019      2.05780581055695
  H           1.07350890291878     -2.19701922307332      2.88504832386072
