67
Coordinates from ORCA-job A3S E -96.884007206820
  Ru          2.02791802484019      3.34319179021462     -0.36107709976102
  H           0.53719275234094      2.26402555545631     -0.36642769221953
  N           2.44665401450898      2.42563968438529      1.47015087281983
  C           2.75581366137599      1.08588223063274      1.43472068250961
  C           2.26698900059107      3.03262669036852      2.65060706130800
  C           2.80257214248024      0.35767583431884      2.65708108670891
  C           2.32983245182900      2.36431918658966      3.85371149489352
  C           2.59318969919459      0.98819757286930      3.84513641685830
  H           3.02300199513615     -0.69767707443347      2.60990662537737
  H           2.18241088276352      2.89622596347738      4.77865469940403
  H           2.63886864467776      0.44553473326456      4.77702691508599
  P           3.33683938996976      1.56960360631509     -1.13811870187406
  C           2.91788130578366      0.68271245910594     -2.76230625986818
  C           5.22645876741614      1.89696388805284     -1.05706593063964
  P           1.43290803011503      5.07862267223234      0.99811476141993
  Br          2.76356439418459      6.82481914142197      0.64926440025496
  Br         -0.33596322732576      6.33121943732256      1.61833090186382
  C           2.97402954452670      0.46533534234208      0.19941658409973
  H           1.07755845591086      0.09417608114723      0.01318894461534
  H           3.33189903440401     -0.55584377383499      0.18916708226892
  C           2.04564020891478      4.52261153031724      2.65896516200500
  H           1.34605512641530      4.79836665339576      3.45394795217357
  H           3.00338824645346      5.02160411389724      2.85958864429798
  C           1.59977989969465      4.14784170209692     -1.97102916873494
  O           1.35411917558244      4.70369955550091     -2.94825232222402
  H           3.32758013288032      4.10781288600966     -0.35014231855456
  C           3.20033683417032     -0.81637478561586     -2.68661834811294
  C           1.42001202334850      0.87847818576596     -3.01409773493284
  C           3.66027550238536      1.32887639060090     -3.93068486677765
  H           2.56522273720790     -1.28851483754532     -1.94041774752813
  H           2.97677386579375     -1.27076110630815     -3.65130921423873
  H           4.23781974796708     -1.02740559370710     -2.44750602536264
  H           1.16742038164322      1.94056542894272     -3.04106868493565
  H           1.15398827635700      0.44893140917535     -3.97947973502041
  H           0.82190677626230      0.37839285803099     -2.25721132847474
  H           3.54594208090576      2.41187012425748     -3.89577054114030
  H           4.71691471973252      1.07946776307137     -3.93317450314153
  H           3.23739842883337      0.97414864774681     -4.87035530586419
  C           5.52529218207538      2.29088772526857      0.39285287963304
  C           6.04217817879910      0.64441610709872     -1.37262299523214
  C           5.62895015932137      3.06318745943181     -1.96000838513899
  H           5.29784837504845      1.47861320266795      1.08123227861588
  H           6.58146354292057      2.53487906999243      0.49594107812089
  H           4.94875799498607      3.16997825687429      0.68344228141075
  H           5.97920268296508      0.36431830389418     -2.42016729491689
  H           7.09095795889075      0.83327811849311     -1.14493587585684
  H           5.71236432029780     -0.19253260298963     -0.75886820373426
  H           5.70565434687494      2.77062189285214     -3.00137780656001
  H           4.90283857816585      3.87318260136404     -1.87649519436947
  H           6.59995424949843      3.44674019130129     -1.65011252799777
  C          -0.27978490059797      1.50452466027533     -0.01944926725965
  O           0.13744844402356      0.20488882846294     -0.28173302974809
  C          -0.55757408114184      1.74162600193235      1.45193472079079
  C          -1.00200919231768      2.98559559045205      1.88093315475145
  C          -1.27404579175669      3.21796311831232      3.21613828081839
  C          -1.10257079792697      2.20110797342433      4.14128092333180
  C          -0.68212300155732      0.95320553546331      3.71841391898049
  C          -0.41520727422593      0.72037387684994      2.38028538993080
  C          -1.52975433462798      1.76973612028999     -0.86009297670896
  H          -1.17775852779061      3.76522448086306      1.15136603815823
  H          -1.62661097382070      4.19024332243925      3.52854932387062
  H          -1.30859543102680      2.38041284775064      5.18578924279424
  H          -0.56124883523623      0.15122879246477      4.43121498628068
  H          -0.10543902207710     -0.26078036663299      2.05282207857277
  H          -1.31505329128533      1.57889537388062     -1.90861433929517
  H          -1.87897942597562      2.79191687044866     -0.74798391915100
  H          -2.31309926177407      1.08743470019284     -0.53710151865068
