67
Coordinates from ORCA-job TSA2R_3R E -96.878806140870
  Ru         -1.33299526485651      0.43030244857010      0.33045380613545
  H          -0.69097257440887     -1.17412960787118      0.20282479808655
  N          -0.21911088654121      0.44901301801762      2.10590158017672
  C           1.12628411902725      0.31614340628236      1.99244188682757
  C          -0.79691766407554      0.42997884793341      3.31272870391784
  C           1.90430793845381      0.10709989909818      3.14688394302382
  C          -0.07459427512859      0.22687756670145      4.47502939381859
  C           1.30463510632758      0.05267953113230      4.38052861947834
  H           2.96966471963487     -0.01996480951475      3.03780178061782
  H          -0.57560907437852      0.20644334933355      5.42872595776364
  H           1.88996361809777     -0.11764047114671      5.27086620439903
  P           0.68640127961186      1.22869319531402     -0.51808334060389
  C           1.31407000806583      0.72053329672374     -2.23229294279747
  C           1.06388405148879      3.07704194315433     -0.20907661762341
  P          -2.99758808562212     -0.02304174742286      1.78858134938205
  Br         -4.84764306260356      1.17329263964441      1.65829267584803
  Br         -3.92903185980546     -1.90086909332935      2.61912037610327
  C           1.70069231361030      0.30495958429880      0.66778699857394
  H           1.53430663238381     -0.99828270399886      0.29662018289455
  H           2.77630957553213      0.46388256837440      0.63510893098533
  C          -2.27722668478467      0.67285654970669      3.35326497910794
  H          -2.73617973623377      0.26909738492244      4.26053874100467
  H          -2.46013320375985      1.75621026349992      3.31722059441760
  C          -2.33081906466482      0.40721939218350     -1.22827928051529
  O          -3.00500795494884      0.44166549432169     -2.15814840851421
  H          -1.80606788047351      1.87638506965023      0.56751063601381
  C           2.82286827528656      0.48082334807965     -2.25109083300124
  C           0.61785334123362     -0.59363564557108     -2.59519519468338
  C           0.90037067253314      1.76019401910128     -3.27386772453682
  H           3.07886996216428     -0.37168466691549     -1.62678769418464
  H           3.13009131523045      0.25120948987454     -3.27069302981223
  H           3.38700438067140      1.34661003615967     -1.91866450940415
  H          -0.46780423359439     -0.48489247958588     -2.57678026299740
  H           0.90475123281786     -0.89240032185594     -3.60236122033307
  H           0.91146783680242     -1.39342558472484     -1.92010947780668
  H          -0.15575196942738      2.00530797170984     -3.16153306117970
  H           1.49052823113473      2.66962076890443     -3.20628423416146
  H           1.04547546513989      1.34857292621903     -4.27216145295995
  C           0.87268654314629      3.32443302597203      1.29027213166385
  C           2.49444185468947      3.47116993328841     -0.56999951596035
  C           0.04641839939741      3.93788662300334     -0.96016439550169
  H           1.60385449530456      2.77952550665430      1.88555980698329
  H           0.99418462828168      4.38582723160551      1.50282805977201
  H          -0.13038154795072      3.03464418273947      1.60262712304615
  H           2.67418688240282      3.42937329293759     -1.64008897316959
  H           2.67324428799959      4.49639647931906     -0.24638622900452
  H           3.21484880506820      2.83166256265125     -0.06233179613671
  H           0.28279608110366      4.02768762851623     -2.01470589580419
  H          -0.95185190164364      3.50865847085284     -0.86088687456018
  H           0.02814383164336      4.94117855394956     -0.53698826227552
  C          -0.15229944595539     -2.28397512624119      0.25024459546960
  O           1.14920778746438     -2.16294577907874     -0.02631655741922
  C          -0.91943869336115     -3.10422397249019     -0.76616621506912
  C          -2.28150637017916     -2.93451422159620     -0.96685510021265
  C          -2.96330400709575     -3.72777225254608     -1.86940566112125
  C          -2.28475402158317     -4.70115948976137     -2.58413488952611
  C          -0.92546574603470     -4.87467866860822     -2.39126091536410
  C          -0.24565994601439     -4.08181174053182     -1.48474465274857
  C          -0.41545459717844     -2.85500298441087      1.65495657778116
  H          -2.82165263419454     -2.16375285139043     -0.42175136975953
  H          -4.02306577629581     -3.58307735527417     -2.01831574002048
  H          -2.81641286675116     -5.31880353414936     -3.29269341751067
  H          -0.39079438241453     -5.62993569295628     -2.94836059730665
  H           0.81543316158721     -4.20056036588646     -1.32463776277002
  H           0.07643037626906     -3.82522109641373      1.70503035123468
  H          -1.47629271840487     -3.00157226769806      1.83740675873631
  H           0.01611092075895     -2.22218296943101      2.43044656309250
