22
Coordinates from ORCA-job NEB E -43.958202121510
  C           0.31459030760159      1.72236055525832     -1.76851069225674
  C           0.83277073369521      1.22518036278416     -0.61894014300992
  C           1.02739208443876      1.74032727182481     -3.03759179453173
  H          -0.67152808842239      2.15350298538127     -1.76975033363898
  O           2.07934331753289      0.75941861416756     -0.48485626006140
  C          -0.81022023502325     -1.20255969704314      1.58264426683588
  C          -1.63617303220462     -0.20418742487289      1.29692755640351
  C          -1.20324552152502      1.08936708635193      0.66945078436978
  O           0.21181792883434      1.14689949871990      0.55292094425766
  O          -1.24505689731787     -2.35707788492477      2.14028070521547
  H           0.25307131773409     -1.12964881485560      1.38382728492933
  H          -2.69046615694767     -0.28600453631355      1.50585645384840
  H          -1.50649756100689      1.93290865216109      1.30212956351232
  H          -1.69173093881160      1.19978816166533     -0.30439877494263
  Br         -0.05748404306331      2.46645376763870     -4.46720638172101
  Br          2.73374517726091      2.87290932059379     -2.96611436799769
  Br          1.65046744075510     -0.07449740872401     -3.61485615990591
  H           2.66404008995313      1.01572582277877     -1.21366954123976
  C          -0.24860838859267     -3.32094502149235      2.39760447033207
  H          -0.75658400972093     -4.17292489863153      2.84531892662884
  H           0.50382407836007     -2.93903017542878      3.09495085659798
  H           0.24653239647015     -3.63796623703902      1.47398263637448
