22
Coordinates from ORCA-job NEB_product E -43.975997593590
  C           1.51851335310568     -1.33817227237545      1.40867499599603
  C           2.94443895096139     -1.19284442260463      2.01286591984205
  C           1.62221789906775     -1.49378507643201     -0.09576731283331
  H           1.00692558140571     -0.38537490059648      1.59942250131101
  O           3.61452710268617     -2.31698880660604      2.18428626369704
  C           0.74716172503563     -2.43909370208658      2.18278186311331
  C          -0.73053923072035     -2.44529286862487      1.88628242868421
  C          -1.58446620383875     -1.61027179164484      2.44700742982085
  O           3.37839996922063     -0.11868336156513      2.30588589782476
  O           1.35676150525920     -3.68924593753764      1.90652704525822
  H           0.88568601897820     -2.19774859633809      3.25385754505536
  H          -1.05553712209686     -3.19512150926358      1.17947800303790
  H          -1.26881635531411     -0.86392095258095      3.15814257530127
  H          -2.63181117165579     -1.63298809573128      2.20604621600355
  Br         -0.12620399135404     -1.41986081177690     -0.97353878179964
  Br          2.65349489407743      0.01235866282490     -0.82725176929018
  Br          2.49099135828341     -3.12338546074260     -0.68723451117838
  H           3.07687891650247     -3.11516282771977      1.97954867858298
  C           0.97384988365693     -4.72628647108146      2.78399219577598
  H           1.26300011333288     -4.48810211785843      3.81343594598374
  H           1.50186229970160     -5.61503535513294      2.44609938545645
  H          -0.10383549629519     -4.90129332452520      2.74605748435678
