15
Coordinates from ORCA-job NEB E -26.579705086640
  C           0.69963644439299      0.55853029153336     -1.14377571745789
  C           1.33632424707340      0.91859533494443      0.02976408066316
  H           1.26782967069403      0.08187060472161     -1.92950937318046
  H          -0.08242126716847      1.21822142990399     -1.49653110865320
  I           3.20540432336490     -0.09192649140842      0.47648726295269
  C          -0.48744548417340     -0.83994768323016     -0.37929405137990
  C          -1.11259459766014     -0.15867772719576      0.66623449558768
  C          -0.29522825995215      0.31692539135120      1.72854980274738
  O           0.70875577390950      1.39955187487902      1.02616345883453
  C          -1.26307870216063     -1.22334351959812     -1.50872095304169
  H           0.30501217985253     -1.54637109410892     -0.14424115101539
  H          -2.04531792712254      0.34885860046448      0.46498254611041
  H           0.42795238988531     -0.38353756448242      2.14257662830179
  H          -0.77778964763567      0.91760158419251      2.48905619363532
  N          -1.88703914329967     -1.51635103196679     -2.42174211410443
