15
Coordinates from ORCA-job NEB_product E -26.626648183140
  C           0.90176870389051     -2.23670163291744     -0.07328067586327
  C           1.82108151886822     -1.73265484127748      0.98388134675582
  H           1.43041115065989     -3.01249435315603     -0.63771163325879
  H           0.67529841749510     -1.42952996968371     -0.77517642780541
  I           3.55215007524331     -0.72619370261776      0.11739261197049
  C          -0.39354208614275     -2.79887011058361      0.54313379419345
  C          -1.24749843018770     -1.69703642655862      1.11851406164914
  C          -1.61932725456172     -1.64549053391504      2.38205041016513
  O           1.73001360541711     -1.82564210553454      2.15499593866225
  C          -1.14680912916765     -3.48742426392512     -0.48333573202175
  H          -0.14254627402302     -3.52127296948137      1.32904931414087
  H          -1.54735656028851     -0.93369694418781      0.41254991707373
  H          -1.32739262692178     -2.39908367651564      3.09458707640303
  H          -2.22482915088175     -0.83971979254940      2.75867749531484
  N          -1.74982195939928     -4.01558867709645     -1.29692749737952
