15
Coordinates from ORCA-job NEB_reactant E -26.604247273760
  C           0.92862267183328     -0.43720419714966      0.03416798652916
  C           1.74295414381162     -1.00258319276511      0.90559346634949
  H           1.29357735375957      0.27165479846669     -0.68326727093504
  H          -0.12156322114192     -0.66896536796404     -0.00232851519010
  I           3.81200641068109     -0.56850748623020      0.95462879284748
  C          -1.70873880823042     -3.15871691133513      0.67026504964196
  C          -0.41626442932043     -3.11616956608505      0.98807542309859
  C           0.14151210235112     -2.27897912539046      2.09593143136752
  O           1.48546254800400     -1.89482229039220      1.88015202180234
  C          -2.20530464218756     -3.98448088637455     -0.35758173067544
  H          -2.44833854015834     -2.56180587937272      1.18951240414968
  H           0.30325611201233     -3.72333370318110      0.45464165868044
  H           0.18132800300968     -2.87708665817079      3.01473491814950
  H          -0.48491243960918     -1.39561927867405      2.28072646818299
  N          -2.61909726481484     -4.64538025538164     -1.19755210399858
