17
Coordinates from ORCA-job NEB E -30.864960826480
  C           0.32841274804188     -0.44400551020336      0.32496362503096
  C           1.18217770582118     -1.47466878262426     -0.28288132525238
  F           0.64331934708616     -1.64156841083752      3.05150273194131
  H           0.17367063662371     -0.43494993124037      1.39609300561350
  N           1.64994506155572     -2.37090272716678      0.60226968094194
  C          -0.19790544709814      0.61913531878498     -0.51783036044711
  C          -1.49451227023821      1.25038483388617     -0.07265452193049
  C          -2.37889420683363      1.71948031676173     -0.93130068859631
  O           1.42267057647664     -1.47610130408710     -1.48200238484804
  C           0.81045378977662      1.67867803731912     -0.43046307482047
  H          -0.20257622935424      0.30230897139101     -1.57286273072120
  H          -1.64369923085569      1.30237862269080      0.99579770828255
  H          -2.22433580003907      1.68018508654067     -1.99722055747947
  H          -3.30744959313900      2.14889484312637     -0.59770325861032
  H           1.42660100929169     -2.29435004821907      1.59286207918852
  H           2.26017672127695     -3.10525522188000      0.28304903009704
  N           1.55194518160745      2.54035590575759     -0.36161895839006
