16
Coordinates from ORCA-job NEB E -36.761039753210
  C           1.60351705778287      0.37680557969911      1.55990697635904
  C           0.77029295255674     -0.30035036335176      0.77457235306535
  N           1.09688149605342      1.30114351285629      2.56302195271328
  H           2.67037030236407      0.25751103773650      1.49918145235302
  F           1.27271434977769     -1.13719110374259     -0.14833798161655
  C          -0.62966124285422     -0.45688529789554     -2.58051925020422
  C          -1.17893046516735      0.02328067173773     -1.48090240241107
  C          -1.31903344423967     -0.79157250318299     -0.22923894951660
  O          -0.54795656479393     -0.23087847776295      0.83815950540390
  I          -0.40787904949448      0.66645256859795     -4.33647599132018
  H          -0.27167843351020     -1.46941835902265     -2.66991449657210
  H          -1.51371749563915      1.04799571758995     -1.41012649125208
  H          -1.02846640922902     -1.83348223563703     -0.40017252653987
  H          -2.34513655020516     -0.75162969394753      0.14326722458174
  O           0.84613102835009      0.84595410485216      3.64841593317469
  O           0.98255246824831      2.45226484147334      2.22916269178168
