16
Coordinates from ORCA-job NEB_product E -36.776398763530
  C           1.53089494916096      0.26066990753338     -1.83018950957451
  C           0.98617210368691     -0.76041751555623     -0.84875554130787
  N           1.24525288145352      1.62789091238185     -1.27078554969538
  H           2.62305337033622      0.15928439640630     -1.87189158799886
  F           1.52892271216713     -1.97192539277830     -1.11652985610634
  C           0.90093901999784     -0.03007958633434     -3.19654550939720
  C          -0.58862864268928     -0.08283273646350     -3.17227242266054
  C          -1.26715519995119     -1.13829237159688     -3.58521350549913
  O           0.19299868787722     -0.62827894507697      0.00521741606973
  I           1.58487044766096      1.45209383772295     -4.65259671467396
  H           1.30762853228871     -0.97609504449573     -3.56118020919158
  H          -1.09050837514811      0.80407270429716     -2.81432262628058
  H          -0.77900853223458     -2.02449678088767     -3.95855501982567
  H          -2.34199873518017     -1.15741292745912     -3.56063500377740
  O           1.87694283166719      1.90942486572062     -0.28991388722917
  O           0.43182394890667      2.30819467658648     -1.82653047285155
