16
Coordinates from ORCA-job NEB_reactant E -36.768901025930
  C           1.89133267280423     -0.00644072021121     -0.10790740207609
  C           1.19962827626656     -0.59190462156388     -1.10320807938341
  N           2.04268823768330      1.39584415817363      0.00957161875868
  H           2.36685999615708     -0.59810325519114      0.65598446207051
  F           1.11727486737288     -1.93120814468283     -1.10482034569372
  C          -0.56322661394816      0.00345796332187     -5.37330519157790
  C          -0.64556156045909      0.21814902937335     -4.07442615267192
  C          -0.12386056601950     -0.74710240811430     -3.05695720098422
  O           0.59482454201917      0.01320177816869     -2.08272014045711
  I          -1.33528851153516      1.32783965993818     -6.80054642742260
  H          -0.11663031522453     -0.87775443523018     -5.80370668717817
  H          -1.08602908329889      1.11471414619035     -3.66530689802027
  H           0.53187729317715     -1.49749722241158     -3.51328203403065
  H          -0.95974296769936     -1.26360917932400     -2.56405580864990
  O           2.70256078628660      1.78898355806494      0.94908653851509
  O           1.51329294641771      2.11012969349813     -0.81570025119833
