20
Coordinates from ORCA-job NEB E -35.780965921020
  C           0.40212462093019      0.47262963056156     -0.75123766409361
  C          -0.84481422130300     -0.28660531963311     -1.05833166216225
  H           1.27183620419027     -0.14009410532839     -1.01692772320017
  H           0.44654608469810      1.40917715439561     -1.30328025881297
  C          -1.80227331597973      0.22180265348349     -2.07036421608208
  C           0.35289248379746      0.67998208809861      0.76542844810396
  C          -0.37394032854700     -0.49645499923995      1.27386053316626
  C          -0.32587933090224     -1.78727728607458      0.50707392799467
  O          -0.93594505560187     -1.57943752146868     -0.74811326878970
  C           1.72414618419152      0.93438120654625      1.44373450373957
  H          -0.21263736347866      1.60089825265976      0.96334268747701
  H          -0.41952250076620     -0.61010819997053      2.34964066663715
  H          -0.90721895890055     -2.56775505614284      1.00083348968245
  H           0.69964233389894     -2.16280161483916      0.37318507053524
  H          -2.16286506284855      1.20691075734997     -1.77641977358658
  H          -2.64351327666692     -0.45848971671849     -2.16664554412611
  H          -1.31806232798436      0.33031810426720     -3.04361652890410
  Br          1.48542827889299      1.32047242263505      3.34856740500959
  Br          2.93549204589818     -0.59585540205051      1.29308306724945
  Br          2.62856350648141      2.50830695146873      0.61618684016223
