20
Coordinates from ORCA-job NEB_product E -35.845219075910
  C           2.64222269751918      1.86045248731757      1.65187906159208
  C           1.23509055440388      2.35115824874135      1.32465104755196
  H           2.74760946777767      0.89129376613057      1.15471288524657
  H           3.39251749442469      2.52900294436346      1.22552529897601
  C           1.13196380491824      3.12364750746990      0.04234499465823
  C           2.83994564398049      1.66133552543591      3.16028524901909
  C           3.72584605079492      0.48426438191311      3.45694957550898
  C           3.40262680968911     -0.47463707011943      4.30362980967951
  O           0.29825256230141      2.10898995203673      2.03927173564810
  C           3.41173277843835      2.91269494064897      3.81299005865811
  H           1.84874514488125      1.48961608898218      3.60551488183886
  H           4.67055342615103      0.46705840275000      2.92943772061430
  H           2.46672389704243     -0.47263535573167      4.83812578718012
  H           4.06141232478878     -1.30347063434612      4.49470819743431
  H           1.55500150105475      4.11511331406634      0.19952210521029
  H           0.09098644227035      3.23162883650921     -0.24855699697754
  H           1.69630438886214      2.63461881234556     -0.74772691560355
  Br          3.47605622007418      2.70684965138329      5.75302594665157
  Br          5.23065595050369      3.28806961609769      3.19867472687561
  Br          2.33285284012345      4.49634858400539      3.41873483023737
