20
Coordinates from ORCA-job NEB_reactant E -35.824623636850
  C           1.66027232556662      0.03850291519915      0.30848206465839
  C           1.51368794658970      1.34062232964927      0.51111725306649
  H           2.20933428470927     -0.61285835910996      0.96321903894138
  H           1.21556045427439     -0.42327668576516     -0.55223864424957
  C           0.74688290572366      2.24957582243484     -0.40041311119877
  C           3.43043735305956      2.11227145966520      4.80689473408571
  C           3.28094742219230      2.36611216230570      3.51642144593467
  C           2.78121175524519      1.36574375409367      2.52750281452986
  O           2.02661842836100      2.05351645139897      1.56089822543938
  C           3.95353930015218      3.04732457963650      5.82383500744399
  H           3.17699217354913      1.14084856124509      5.21554750192408
  H           3.51681496933847      3.33151366944492      3.09017850034674
  H           2.17725237781560      0.59014487527757      3.01880341756407
  H           3.64777437072409      0.87599467899521      2.05172450958941
  H           1.40393142379235      3.02936731631336     -0.78091515001685
  H          -0.05578205577564      2.73333162637675      0.15288958313399
  H           0.32842238709730      1.69251310408283     -1.23162499347771
  Br          2.62354553951415      3.26457871510546      7.26452839272713
  Br          5.58642659886786      2.27670898782302      6.63592954529258
  Br          4.40373003920284      4.81036403582762      5.16301986426505
