17
Coordinates from ORCA-job NEB E -30.479482790940
  C          -0.42127837710604     -1.15195260515086     -0.08762303124654
  C           0.66505351739003     -0.83239380629921      0.75111019827061
  N          -0.24365490596533     -1.31306546770203     -1.45851974776024
  H          -1.25673657452095     -1.71201608336325      0.32086893512796
  O           0.48800429053435     -0.85255223657347      2.11755904698540
  C          -1.12667996021468      0.77558544171343     -0.01149379956152
  C          -0.06995844953264      1.49693324555681     -0.54581964203267
  C           1.12270578763149      1.55744311717485      0.19007624259902
  O           1.62201177944294     -0.12861134760172      0.30635782915940
  F          -2.25660411940836      0.64274556750069     -0.73618954094528
  H          -1.36188511217038      0.81221412598626      1.04861159227523
  H          -0.04594512594395      1.61742005199715     -1.61807735270650
  H           1.05838919569790      1.72610412358477      1.25747239722697
  H           1.98977652248291      1.99843300402344     -0.27711768971316
  H          -0.57993332497415     -2.17776388088742     -1.84864548494183
  H           0.68442563672984     -1.05941378589034     -1.76650398530271
  H          -0.26769078007298     -1.39910946406908      2.35793403256586
