17
Coordinates from ORCA-job NEB_product E -30.525204006920
  C           2.36544754274515      1.32748166049757     -0.14054218011830
  C           1.44609200575850      0.72742839736521     -1.21603119284778
  N           2.08101450766706      0.81440075362919      1.18038358142565
  H           3.41288922428649      1.10320876468776     -0.38276420572388
  O           1.83982942921549      0.90615137825326     -2.48725815908875
  C           2.20082938651311      2.87189589731554     -0.17846168000230
  C           1.01600138955122      3.32711253793582      0.61668850385153
  C          -0.18296628358334      3.50139291161526      0.09531575467015
  O           0.43621171407425      0.14588115077054     -0.94769306123752
  F           3.35361171557853      3.44287888346731      0.31968253656030
  H           2.13002986750717      3.21700905366338     -1.22066553774764
  H           1.21850527071601      3.48122523441906      1.66566316123413
  H          -0.38199024532033      3.33963397897221     -0.95169142710304
  H          -1.02026347694555      3.80364989535803      0.69894650509328
  H           2.35214644943832     -0.16006120624303      1.24694261765011
  H           1.08187298664895      0.86534227638232      1.35645144451732
  H           2.69003851614896      1.36056843191056     -2.56236666113325
