17
Coordinates from ORCA-job NEB_reactant E -30.506604254440
  C           1.72215214293032     -0.16391517127612     -0.14350140709209
  C           2.07922585030852      1.04355814587662      0.29698685077308
  N           0.39238228324951     -0.62067410113331     -0.16792933838799
  H           2.46929763577214     -0.89623741822254     -0.40779256310761
  O           3.38438265734339      1.45839535729004      0.43246822929757
  C           0.96695167713397      4.80065985557952     -1.17565960770096
  C           1.74175817475609      3.87693436800982     -0.64361587996291
  C           1.52191237713000      3.31455511664826      0.72768166388083
  O           1.13161687906612      1.95134123187795      0.68768398137537
  F           1.17980122421123      5.27998652339021     -2.41186428688175
  H           0.12064527546739      5.27519686019423     -0.69983691890167
  H           2.56278282421033      3.46200144196491     -1.20966680477231
  H           0.69527127987406      3.82193349786305      1.22946972896800
  H           2.43721702805350      3.42205412372162      1.32162696816337
  H           0.16286848753671     -1.10700217322012     -1.02596090816931
  H          -0.24963277160607      0.14432813809145     -0.00249773505500
  H           3.96666697456278      0.71728420334442      0.24280802757339
