15
Coordinates from ORCA-job NEB_product E -29.485582277430
  C           3.07821967272001     -1.62507747343422      0.59577692785723
  C           1.59903252721123     -1.71161658312394      1.00772849341387
  I           3.59396366037997      0.32513537074385     -0.20209532104497
  H           3.66858348409256     -1.71363256243476      1.51490869304408
  O           1.05014529974347     -0.62078828913452      1.52246659070322
  C           3.41306565148502     -2.76708483474723     -0.34840362927249
  C           2.74814019628081     -2.66796205264008     -1.67329234856139
  C           1.95738541620644     -3.60722018105777     -2.15867636620377
  O           0.99910281268521     -2.74282605814326      0.91909946714406
  I           5.57742101170349     -2.89912583092665     -0.62149793796635
  H           3.13012682130832     -3.69901240767348      0.14602458400275
  H           2.95568118258135     -1.76940169473788     -2.24086385467027
  H           1.74260375828582     -4.50877326057999     -1.60988611469703
  H           1.48241373792409     -3.50039138936926     -3.11801322313801
  H           1.62251476739221      0.16567724725921      1.49042403938908
