15
Coordinates from ORCA-job NEB_reactant E -29.467884212740
  C           0.91557727727100     -0.75019757739979      0.65133273673784
  C           1.97914057314676     -1.11403370539902     -0.06297153393556
  I          -0.98810784080444     -1.43590226876845      0.11175785063718
  H           0.96157369324926     -0.09359039991053      1.49793629164503
  O           3.24893267776361     -0.72887829816640      0.22948285140780
  C           3.10735825266092     -4.06084427876443      0.14216752560840
  C           3.67443948347525     -3.49585162762071     -0.90488893388457
  C           3.01654547039826     -2.42677970452640     -1.72949077153537
  O           1.84287250121501     -1.89650669992194     -1.14738123823191
  I           4.05099238698626     -5.54020158129781      1.29652802947720
  H           2.11845869245151     -3.81625354023560      0.49101943812369
  H           4.66406992415477     -3.77308292603477     -1.23632441648276
  H           2.68642060375280     -2.84659218075879     -2.68555340104117
  H           3.74109481271321     -1.62749844483426     -1.92788537808170
  H           3.25743149156582     -0.15558676636108      1.00337094955590
