21
Coordinates from ORCA-job NEB E -45.115656286350
  C           0.19981127848188     -0.19812667097067     -0.43146971684623
  C          -1.07985581805581     -0.66747993656976     -0.13918530096851
  I           1.87469145227281     -2.15710885128018      0.16369525410319
  H           0.53039599216101     -0.23874956142413     -1.45745033717458
  O          -1.86443027836610     -1.32668188337717     -0.99442208704901
  C           0.58518907877297      1.05794962012473      0.35997157108610
  C           0.26071661431974      0.76666966617144      1.78290759638953
  C          -1.12206888445152      0.36205074296468      2.02607647158753
  O          -1.68894740587599     -0.52506851321538      1.01890575191928
  C           2.03404912938158      1.49304485809350      0.15977998358545
  H          -0.00710820097442      1.90205129724536     -0.03329769981537
  H           1.04236363949193      0.40686577133777      2.42664604967422
  H          -1.81195039490855      1.21778521500009      2.02877275054618
  H          -1.23511581970779     -0.17444615098013      2.96931283238979
  C          -1.38230754502979     -1.65931569584772     -2.28435250885931
  H          -2.16746882565987     -2.26578196605528     -2.73106158872636
  H          -0.46028440109531     -2.24116310782335     -2.22395546519016
  H          -1.22132530573095     -0.76648721129658     -2.89385831068456
  F           2.43610655600496      1.33879126745545     -1.11121003868875
  F           2.91919060627820      0.87041212248194      0.93219374928395
  F           2.15834853269101      2.80478898796538      0.43200104343759
