21
Coordinates from ORCA-job NEB_product E -45.192104188610
  C           2.48121705036368      2.40279227114970     -0.81790987353640
  C           1.14583021375414      2.54422040751761     -1.55032488235162
  I           2.37326768572516      0.44894507392175      0.10874662715343
  H           3.34444817546131      2.37021395581902     -1.48163603711520
  O           1.04002459314047      2.08709542465796     -2.79158988536945
  C           2.63917846431167      3.50539260101466      0.22730598089784
  C           3.66160535872240      3.19290425911531      1.28466226468056
  C           3.40439081539353      3.24319055733138      2.57720484723698
  O           0.19372091530742      3.02487057056271     -1.00178117041684
  C           3.08070278080866      4.77263593946143     -0.50440345627642
  H           1.66167462915051      3.71340993714791      0.67924215029992
  H           4.64378403697360      2.92971389321416      0.91503167325451
  H           2.43105862742780      3.50993382708150      2.95410015685905
  H           4.15846945934945      3.01225154198228      3.30838128980082
  C           2.12135664704999      1.52767341582552     -3.51526857450737
  H           1.69459446203757      1.22179845526002     -4.46901273071034
  H           2.53656887557044      0.64965602033970     -3.01382259788278
  H           2.90556175215133      2.26690057037077     -3.69802854997916
  F           2.27647790898616      5.10120726413741     -1.52560572674024
  F           4.30809030754139      4.63331738993822     -1.04208303049636
  F           3.13407724077333      5.82947662415098      0.30779152519908
