26
Coordinates from ORCA-job NEB E -35.730839690310
  C           0.32255677481674      0.48372713166729      0.23971742338714
  C          -0.78525304050227     -0.38094698998526      0.19299632644152
  O           0.27721383082899      1.73027006573925     -0.37439850773168
  H           0.91996637150383      0.48099891624577      1.15679680620915
  C          -0.86469136583854     -1.50464149294509      1.21020755758169
  C           1.50054298331152     -0.39848026490427     -1.08045970839573
  C           0.64755397019112     -0.31442526609344     -2.20028944298710
  C          -0.53073284869821     -1.05178343629567     -2.22872597478538
  O          -1.50998891925957     -0.41868489980528     -0.85757634866674
  N           2.66055158038930      0.35861620137893     -0.98476571859723
  H           1.57855875926174     -1.36011880429329     -0.58066199656807
  H           0.70842156216934      0.58867899990980     -2.79046516324428
  H          -0.51338346674278     -2.06857939351648     -1.85826891271254
  H          -1.22225328598327     -0.88684421318706     -3.04006578066537
  C          -0.28555646059876      2.71559436724605      0.45724472218854
  H           0.27940689977888      2.81313099094651      1.39385160349420
  H          -1.32976783739627      2.48418795949073      0.69706777769468
  H          -0.23730539521319      3.65170423401541     -0.09577303874459
  C          -1.51576611815325     -1.01484721127121      2.50358032576518
  H           0.13777649090199     -1.88162319112018      1.42927517383873
  H          -1.46219830569405     -2.31344748697077      0.78633483837174
  H          -0.93458068002614     -0.20530294739617      2.93966320393465
  H          -1.58068822866250     -1.82438883910677      3.22731524072359
  H          -2.51947158383357     -0.64816587382616      2.30283306036869
  H           2.74481016078000      1.09569491194977     -1.66490237003967
  H           3.51427815266892     -0.13032346787242     -0.78053109686113
