26
Coordinates from ORCA-job NEB_reactant E -35.771807487700
  C           1.47769195775907     -0.33605184566784     -0.07610463286510
  C           1.36665625059209     -1.65308437160990     -0.24963648044690
  O           1.39981762089604      0.63476695997717     -1.05583365568430
  H           1.62281639328628      0.04471801442171      0.92972295307709
  C           1.35372694763148     -2.57922996003492      0.94043936590511
  C           3.71963803827577     -1.53047639828129     -2.41802704640834
  C           2.59032428780285     -1.15649498273194     -3.00859322229392
  C           1.23091451940673     -1.67601480114959     -2.64049850045462
  O           1.18240458049338     -2.35619401084975     -1.40358765961147
  N           4.99115739398991     -1.13357935353868     -2.80641987311142
  H           3.71108360712222     -2.25047174301323     -1.61154154938899
  H           2.60059484376192     -0.44051203170587     -3.81773790230840
  H           0.90211543300038     -2.42624016084396     -3.37192822467002
  H           0.51182651057258     -0.84782663607225     -2.64704389915647
  C           2.25617818816583      1.72627987149690     -0.84286334356824
  H           3.30904859202789      1.43034014455552     -0.92221628911092
  H           2.09033963075381      2.17524255146888      0.14433134338608
  H           2.02689428886978      2.45716721009288     -1.61654053842115
  C          -0.07808576753834     -2.90751120861635      1.36314373613825
  H           1.88961768827781     -2.12084903283760      1.77187658035637
  H           1.86287046710946     -3.50173515266359      0.65778212727263
  H          -0.60186393172801     -2.00128852600155      1.65751892050657
  H          -0.07717501444459     -3.59962052708668      2.20203675742250
  H          -0.61359760538289     -3.36316662535391      0.53482747986045
  H           5.00534820981440     -0.33356739578967     -3.42257144011580
  H           5.66925686948418     -1.07079998816449     -2.06293500630899
