23
Coordinates from ORCA-job NEB E -51.029745966740
  C          -0.47254732763281      1.87383623453345      1.17508518634814
  C          -0.22105389674984      0.54615076491924      1.63837438062743
  C          -1.07795587200235      2.29546776237580      0.00120814308856
  H           0.13278687093859      2.60731824063711      1.69999755350737
  C          -1.17433728190765     -0.03499156377074      2.64611331396283
  C           0.59248166319798     -1.09527937707184     -1.72346181339099
  C           1.33880228143213     -1.22719629207608     -0.63577602428458
  C           1.64228620912799     -0.07217227739985      0.27302539422917
  O           0.75434009865331     -0.23201661533722      1.39937396012297
  C           0.24132959531979     -2.20861129353869     -2.64055018028618
  H           0.22756993011638     -0.11632003409346     -2.00413879670273
  H           1.71399629287460     -2.18987443808338     -0.31835371923002
  H           1.46155720425057      0.88908637465105     -0.21868435396168
  H           2.65084527539397     -0.13764059032320      0.68716299211136
  Cl         -2.19137857758395      1.19772911991008     -0.75263211537191
  Cl         -1.63002025357227      3.94069455719368     -0.03078456592144
  Cl          0.40751629321109      2.45162290459897     -1.60224942723563
  Br         -2.26450036120087      1.29843108273790      3.49431700708521
  Br         -2.31476894530040     -1.24557776633752      1.58051323726112
  Br         -0.24583462855569     -1.09898573217373      3.98316218782682
  H           0.61902092114352     -3.16105771480306     -2.27787924621222
  H           0.65137420542597     -2.01420269575839     -3.63062732925313
  H          -0.84150969658006     -2.26641065079010     -2.74319578432048
