23
Coordinates from ORCA-job NEB_reactant E -51.109535023160
  C           2.11988300242846     -0.57442231433884     -0.08906914821182
  C           1.36992860587742     -1.54068113879907     -0.63249919717314
  C           2.56687821629389      0.68424214006313     -0.73089744509292
  H           2.45482394367029     -0.69086451889013      0.93265709643164
  C           0.98296749421977     -2.72033234766932      0.23678050559331
  C           2.49635584201168     -4.08047686044443     -3.10775700816463
  C           2.73668746146584     -2.81294827521672     -2.80586928513639
  C           1.73332014161256     -1.71884875184180     -3.00423761922717
  O           0.85016598648150     -1.62719647628695     -1.86209221755785
  C           3.43856656541404     -5.20231954824540     -2.85445775539232
  H           1.55424578130113     -4.35211692734104     -3.56807907744450
  H           3.66582235900569     -2.52577724587435     -2.33107482032650
  H           1.04614653449026     -1.94502067858192     -3.82124916244332
  H           2.21936726308274     -0.75794279510680     -3.18305208105297
  Cl          1.34771156599372      1.36730413495843     -1.83128139305882
  Cl          2.90954847391970      1.89923115697934      0.52713250856183
  Cl          4.09493179825260      0.41691550754440     -1.64669972055486
  Br          0.20681987246219     -2.16843970614915      1.93271073586107
  Br         -0.27694399602076     -3.84762439622997     -0.67541935357645
  Br          2.58153366888738     -3.78950115392865      0.61971472399048
  H           4.35514783350261     -4.85078139169989     -2.38827870110519
  H           3.68113974268320     -5.70417230617655     -3.78994950462369
  H           2.97005184296410     -5.93732610672432     -2.20083208029580
