23
Coordinates from ORCA-job NEB_product E -51.116617463880
  C           2.13464272689685     -1.92817497929004     -1.10098726275163
  C           0.72923871061073     -2.41534586204446     -0.79512957932790
  C           1.98948972094428     -0.41985213164199     -1.34890136063596
  H           2.80261708799559     -2.06111354427084     -0.24577837397724
  C           0.39418498036428     -2.83164746154534      0.64033658109051
  C           2.71505379236316     -2.68740719342052     -2.31864907313731
  C           4.05462772037768     -2.12925518032994     -2.70142323511863
  C           4.33577962552595     -1.64261313621635     -3.89463975731433
  O          -0.12685922187753     -2.51257232243573     -1.62383910765670
  C           2.86963773719778     -4.17415529690968     -1.99138661235569
  H           2.01801710630596     -2.58221049987694     -3.15404791123559
  H           4.81651613469880     -2.19449454553014     -1.93641888319621
  H           3.59244200251151     -1.57796143328035     -4.67186940496771
  H           5.31977370857576     -1.28511945816132     -4.14313085826896
  Cl          1.32489653158458     -0.05520321578258     -2.94637513422453
  Cl          0.85257185947257      0.26268441232934     -0.13410075145592
  Cl          3.54256901787860      0.41359882793021     -1.15984942933592
  Br          1.53304593729987     -2.16465215566688      2.04729755492717
  Br         -1.44245857517281     -2.34209006687521      1.01430306783522
  Br          0.53528895591197     -4.78504450419129      0.64382145451982
  H           1.90181401418883     -4.65538450355291     -1.88041135517497
  H           3.44502067095860     -4.31876011963850     -1.07920633411606
  H           3.39528975538697     -4.66542562959856     -2.80611423412146
