20
Coordinates from ORCA-job NEB E -45.643520674140
  C           0.51931046993790      0.86924294790950      0.13040888523332
  C          -0.73847981094556      0.46728820070909      0.60237300204142
  C           0.51979481902855      1.70800668227592     -1.12946884823445
  H           1.23301174300598      1.21880331039328      0.86998269396555
  C          -0.93572206407848      0.26631128580675      2.09333373919467
  C           1.29192010640847     -0.82121181876156     -0.49218892688793
  C           0.26148991924259     -1.75974356949865     -0.51433741620320
  C          -0.96140552162283     -1.35869843064819     -1.11578814987253
  O          -1.55983235648927     -0.14793759635917     -0.18440500649370
  F           2.31777321535346     -1.06436387623778      0.34180492167404
  H           1.67217966700300     -0.39605861354179     -1.41599003608715
  H           0.21665911419568     -2.45368859276247      0.31406571520063
  H          -1.77650647315037     -2.07089508929159     -1.07750928856529
  H          -0.88659367355265     -0.86550038945176     -2.08095699650392
  F           1.76296512693510      1.78590328986055     -1.69762480396269
  H           0.23566933113476      2.73441587146998     -0.86846288438426
  H          -0.16273853199183      1.31845029252949     -1.88991903763487
  Cl          0.14566168702672     -1.01950306541127      2.72726272650694
  Cl         -0.54872304164884      1.77371199135145      2.94858606856076
  Cl         -2.60643372579240     -0.18453283034177      2.43883364245267
