19
Coordinates from ORCA-job NEB_product E -49.141930078820
  C           2.81358216543115      1.35854376270736      0.55624419901626
  C           2.22753901673567      2.22107740099456     -0.55926671331067
  N           1.75771671157963      0.31499561854696      0.85146335905479
  H           3.71080392817594      0.82886347658182      0.22456131930367
  Cl          2.98620275850708      1.92320114514663     -2.09740607800836
  C           3.05378881719008      2.19087098155733      1.82725789459793
  C           3.41744402728743      1.30698012605424      2.99400204945474
  C           2.67586568788177      1.20472612791794      4.07935275411982
  O           1.33531470559919      2.98619481586120     -0.42208081955741
  C           4.19951525333752      3.17351262279580      1.57673105447887
  H           2.15302023751768      2.77360832217888      2.05094611449773
  H           4.34080270187819      0.75523385037487      2.88283985203659
  H           1.75285949385300      1.74783509352424      4.19128684182631
  H           2.96233049183021      0.56326676807608      4.89357453741826
  O           1.94066768414867     -0.76179098031068      0.35918553580504
  O           0.83175961441559      0.65672692777044      1.52734838300771
  F           5.34147135732873      2.53863641838536      1.27170659554306
  F           3.95345262879662      4.01116892088947      0.56023302843229
  F           4.44476271850586      3.92564860094753      2.65052009228335
