21
Coordinates from ORCA-job NEB E -43.890918198060
  C          -0.31564798325902     -1.58959527434188     -0.10932180774064
  C          -0.96186392533334     -0.75713371727014     -1.02892594169164
  Cl         -1.36979577949601     -2.63825789112644      0.80400585899127
  H           0.62541064600309     -2.07004620771020     -0.33779841923290
  C          -0.24488003768194     -0.27370555598550     -2.28043670971234
  C           0.23146530856060     -0.23863959968317      1.36548942488821
  C          -0.52370522530944      0.91287491499176      1.06067644741014
  C          -1.88704133148211      0.82044166475735      0.91354840092841
  O          -2.02376791958649     -0.15216570401314     -0.75399705442240
  O           1.56940970069976     -0.27837198579168      1.41309042802807
  H          -0.17224767510639     -0.92506307660624      2.10265459719913
  H          -0.01899002087930      1.75777128910083      0.61273339210686
  H          -2.45196445764464      1.68391258234147      0.60450333117609
  H          -2.43935092317541      0.05876992586693      1.44026317481966
  Br         -1.28178540276141     -0.94049295110572     -3.80723380345209
  Br         -0.27559456167988      1.67439483800319     -2.33499006605302
  Br          1.58631418790184     -0.86478776014488     -2.51023734810989
  C           2.32684785832264      0.76278899892442      0.82048726865381
  H           3.36229996170644      0.43267536512531      0.86697346742043
  H           2.21391516863495      1.69442888643420      1.38058749990287
  H           2.05097241156607      0.93020125823354     -0.22207214111006
