21
Coordinates from ORCA-job NEB_product E -43.923598664300
  C           2.93610008736305      0.97577359058871      0.76758437463936
  C           1.61892492387429      1.05392076403660      0.04975436077794
  Cl          3.25781228109941     -0.79204568048692      0.79182188986873
  H           3.75451933689555      1.44867335619571      0.22147675034595
  C           1.69374740574901      1.42180434390382     -1.42418401609690
  C           2.81015599442797      1.52758572287249      2.20840817431001
  C           2.49732457852065      2.99813345420115      2.09753455680650
  C           1.36169503935469      3.52810282494548      2.50950005860821
  O           0.55345485687581      0.86730361729812      0.56055431120580
  O           3.92090014382862      1.20141533246766      2.99986205322590
  H           1.97365452973650      1.00811989438056      2.69049893192381
  H           3.25765171779706      3.61054580745395      1.63204357124220
  H           1.15840486274533      4.57936908819607      2.39847674545006
  H           0.59034413714911      2.93167645247485      2.96715936803825
  Br          3.03509770304837      0.44237368682442     -2.40748467837311
  Br         -0.03004685982959      1.19900747997723     -2.25058434594758
  Br          2.16670852037010      3.31970183504186     -1.41891607744104
  C           5.12475959775998      1.90021895642291      2.76260194586327
  H           5.86177712843045      1.42166110102085      3.40442732039899
  H           5.04085184068577      2.95525819599984      3.03965173113414
  H           5.45686217411787      1.82040017618465      1.72311297401951
