21
Coordinates from ORCA-job NEB_reactant E -46.541302824180
  C           2.47353291245451      0.47566760159386     -0.32328336408840
  C           1.69913441663041      1.07412240359931     -1.24148570494936
  C           2.74600022923401      0.90998411707784      0.98115746977527
  H           2.95974670573211     -0.45137415170690     -0.59403787295145
  C           1.50052361064891      0.47760211076317     -2.61421562172310
  C           3.25957247363011      3.82400682047077     -0.56314054628887
  C           2.28776188704594      3.67446544925222      0.32157112036800
  C           1.00001469648579      2.96167450869881      0.04851160478497
  O           0.98436425538037      2.21725235815667     -1.15268952095265
  C           4.53222526189359      4.54791868763460     -0.26197523117373
  H           3.21487620290243      3.43388124337149     -1.56896984944511
  H           2.37754809584041      4.08276748740101      1.31796176898060
  H           0.20279456112158      3.70368258009433     -0.07552549448484
  H           0.74446476376982      2.32408296628888      0.90299411061178
  N           2.98576646792133      1.21143454775045      2.06336696370419
  F           2.21118966746139     -0.67390177376866     -2.77745257721652
  H           1.83008008560732      1.18274519431751     -3.38610966281268
  H           0.44213313670760      0.23898248031529     -2.77186367651926
  F           5.60051545682372      3.73704781851458     -0.35173409903772
  F           4.74997368635851      5.54589334129858     -1.13985724124023
  F           4.56258142635013      5.09786420887619      0.95557742465910
