19
Coordinates from ORCA-job NEB E -44.098165351180
  C           0.46011403974627      0.47171678634717     -0.63192820431483
  C          -0.96141650652643      0.44988922455106     -0.64142219843327
  I           1.37848605117483     -0.95297654568871     -2.20232300800322
  H           0.88309629583401      1.42316220658384     -0.94205371038238
  C          -1.75190903569332      1.60190286213681     -1.18743457183630
  C           1.00120334112517      0.01703745561904      0.76086681946579
  C           0.30648870653336     -1.19159051293151      1.19804198036649
  C          -1.05673127470255     -1.46742964205759      0.74034523076233
  O          -1.68515313841678     -0.53507293945677     -0.09411833246086
  N           2.50527914984430     -0.16529027124312      0.70209080160454
  H           0.87905540325467      0.88951193677391      1.42078877123277
  H           0.91136575908893     -2.03536651727433      1.48709814773649
  H          -1.75480598508498     -1.57033320864608      1.58377159732573
  H          -1.07356449521205     -2.43863440451562      0.22282063030011
  F          -3.04219572860082      1.27831648609493     -1.36671030149035
  F          -1.73905230090128      2.65025746595531     -0.30249979607050
  H          -1.34676155685089      1.98675796422763     -2.13755969572109
  O           2.96535975930465     -1.22355092677716      1.02859287380370
  O           3.12114151608290      0.81169258030121      0.36163296611487
