19
Coordinates from ORCA-job NEB_reactant E -44.146502823880
  C           2.39137793762065      0.49402971117263      0.48457258465415
  C           1.56709124106164      0.83589028233190      1.47186289080420
  I           3.56831556273962     -1.22516273771030      0.20993313495649
  H           2.50993675200686      1.17032798890211     -0.34315792016752
  C           0.86569602090417      2.18779055396239      1.37012133665508
  C           3.81649562715462      0.32129466715077      3.70826666402564
  C           3.16962784729349     -0.82410620457559      3.52718886743480
  C           1.74746111842486     -0.94455124471872      3.09486991836115
  O           1.17969834151174      0.25758246769071      2.62535513532118
  N           5.18812539132434      0.33150353222880      4.13212385137236
  H           3.40287522110840      1.30791555832740      3.56143926493828
  H           3.68855025688551     -1.75568704533172      3.71653212577338
  H           1.13724163046298     -1.20428213776397      3.96896915281329
  H           1.63531514954646     -1.75198388190894      2.36266140614029
  F          -0.46806928353433      2.04220560912579      1.49677824847304
  F           1.26953368465308      2.98341282282345      2.38679321322561
  H           1.06673915642278      2.71329421070244      0.42555125585708
  O           5.72214778716749     -0.72807122140331      4.37348974966748
  O           5.71684055724563      1.41759706899415      4.21604911969402
