19
Coordinates from ORCA-job NEB_product E -44.149867385880
  C           2.98783184994323      1.03997223367188      1.94028905645546
  C           1.50882961180903      1.10318338710228      1.67692531663364
  I           3.69884485282126      0.22927530079854      0.05490405091009
  H           3.42791778744653      2.03632242589454      2.01239091166556
  C           1.04240003622581      2.30186513994532      0.81796781028858
  C           3.32821748366550      0.19595252247346      3.16300531636000
  C           2.98378445361336     -1.26008830376072      3.04799018441315
  C           2.20841422532370     -1.89256724868508      3.90692925294471
  O           0.70760340702196      0.30625171886632      2.07336372000794
  N           4.80077752990796      0.29298482675055      3.42379581800297
  H           2.83042806362918      0.63801918879180      4.03506356654645
  H           3.44946290842168     -1.77560474542005      2.21901348291868
  H           1.74564913606017     -1.39133155944892      4.74052852066958
  H           1.99067090487936     -2.93946743018603      3.79435211700798
  F           0.24770037123635      3.08288838703624      1.58122854083464
  F           2.06788567024463      3.07740559515599      0.40947191920608
  H           0.46773589729452      1.97530727492136     -0.06211720348350
  O           5.53686204356325     -0.08118921701329      2.54902818668855
  O           5.13028376689251      0.73052050310581      4.49466943192943
