17
Coordinates from ORCA-job NEB E -26.132701221630
  C           1.08917302830486     -0.25645642044897     -0.36356958459874
  C           0.39115004343561      0.41453842023083     -1.36535467136965
  C           0.73086812295983     -1.69293849572669     -0.05897615633017
  H           2.15826970766506     -0.07610361513690     -0.30924197533778
  H           0.84000428323291      1.29812279969388     -1.82541536759021
  C           0.31810741443336      0.66293212770313      1.15751572313242
  C          -1.04391962295368      0.46504638258125      0.97907141541543
  C          -1.63503631999501      1.01649885839782     -0.20565692266187
  O          -0.91185031891050      0.30002382073771     -1.42085984909341
  H           0.80192698696899      0.18398129969629      1.99707960870195
  H           0.72026623700956      1.64387199348618      0.94221245492759
  H          -1.50419423267078     -0.41401808438391      1.40623098863239
  H          -1.42403898549865      2.06904001316548     -0.38850818706717
  H          -2.67932119320979      0.77888026639733     -0.37528482764603
  F           1.55156551478793     -2.51770617417466     -0.79612536776707
  H          -0.29671154962042     -1.91252350155374     -0.36182654807926
  H           0.89374088406074     -1.96318969066502      0.98870926673156
