17
Coordinates from ORCA-job NEB_reactant E -26.164698862540
  C           1.76614187552560      0.02602642561707     -0.02369119162735
  C           1.09043097977290      1.08058159539342      0.41617358441676
  C           2.10031599880151     -1.14978094173687      0.83416724274902
  H           2.10635260168635     -0.00949449972804     -1.04473592302735
  H           0.86547798197502      1.91662113810897     -0.23774422422629
  C          -0.45952652332163      3.15495378207888      4.37743586823767
  C          -0.56646361998904      2.26196793126688      3.41314711160773
  C           0.05055065574245      2.40768762245381      2.05665378739416
  O           0.61733771320942      1.16366090298966      1.68391168293655
  H          -0.93596781942089      3.01699827533052      5.33217114733549
  H           0.10071389058190      4.06664251058656      4.24931625388882
  H          -1.12300252876202      1.34614002601523      3.55133210103991
  H           0.81956725514362      3.19234556669122      2.06217677559357
  H          -0.72785487671706      2.69175470008828      1.32919668229119
  F           3.37600960542990     -1.59819060827728      0.56671640069629
  H           1.43384190630210     -1.99928190180912      0.63518956510089
  H           2.06207490403988     -0.88673252506919      1.89508313559294
