18
Coordinates from ORCA-job NEB E -41.411065901410
  C          -1.00778279164891      0.54190542806113      0.93643993340784
  C           0.15477617374542      1.29975234672551      1.10557321135396
  I          -2.67324958913696      1.57112433273726      0.14528271678265
  H          -1.30143285116234     -0.16590565097128      1.69822069646839
  O           1.09057628641088      0.88776182449206      1.99206414596848
  C          -0.32776497305668     -0.60396385126668     -0.68321673882168
  C           0.88405111101646     -0.03104262680548     -1.05588801747571
  C           0.89134486210175      1.34524813419470     -1.33530135290773
  O           0.54542315466280      2.10724644307297      0.21461732095391
  C          -0.36679238580448     -2.01947352436507     -0.19435806461535
  H          -1.19951868602012     -0.34834020295180     -1.27329754664556
  H           1.79861996955500     -0.47774079959901     -0.68824211468658
  H           0.04810166162871      1.76116764094859     -1.87190500063049
  H           1.83578665307258      1.82122558493008     -1.55306722980499
  H           0.76707685943117      0.19580568161731      2.58324066056806
  Cl         -2.01106701802332     -2.48914709429114      0.29852193214597
  Cl          0.14848048526298     -3.12413569804688     -1.50846254133037
  Cl          0.72337107796506     -2.27148796848227      1.18977798926922
