18
Coordinates from ORCA-job NEB_reactant E -41.454894881890
  C           1.25820828745072     -0.75523963987810     -0.08578935122510
  C           2.29036127311111     -0.98198722393032     -0.89574081422740
  I          -0.57028057586554     -0.12099396821273     -0.88409854237349
  H           1.30008419598712     -0.85904514547772      0.98056600085921
  O           3.50369841775884     -1.41665077632865     -0.46809887812427
  C           2.27782889814341     -3.54709361148392     -2.69380682793524
  C           3.25523050817313     -2.76495526420886     -3.12473275093055
  C           3.21397763122863     -1.26929788163649     -3.04676155596721
  O           2.18192964401478     -0.77264179905829     -2.22054731528314
  C           2.28461414736076     -5.03021360729527     -2.70348937394240
  H           1.37130333340187     -3.13000834741069     -2.27600880786535
  H           4.15628557661187     -3.17428002402428     -3.55606608908326
  H           3.00478126555515     -0.85064304438850     -4.03652477033519
  H           4.18855888189238     -0.89778911801925     -2.70739428781284
  H           3.49787625091684     -1.54701016950281      0.48605955429267
  Cl          0.84634666468906     -5.63271048047645     -3.57803858627184
  Cl          3.72406869949472     -5.73666194675260     -3.44830557058394
  Cl          2.18942690007514     -5.61657795191510     -1.01242203319063
