18
Coordinates from ORCA-job NEB_product E -41.471591393810
  C           1.64337163246821     -1.73371852807399     -1.03866137865803
  C           2.77300233122692     -1.63233188234520     -0.01320989668308
  I           1.06958747798105      0.27535926766444     -1.57032225777737
  H           0.75403074659296     -2.18630112710483     -0.59618963881259
  O           2.64559479615812     -2.43124201731542      1.04802543260460
  C           2.03148040355113     -2.49206314063855     -2.31671443879473
  C           3.12806163761793     -1.79481891519591     -3.07905139489890
  C           3.07994606259134     -1.59260090092515     -4.38156250516142
  O           3.69430307247141     -0.88254788360329     -0.12784008847083
  C           2.45799233670602     -3.93551287226202     -2.01631216993718
  H           1.13929868869087     -2.55849933279722     -2.95172704230826
  H           3.96355430768837     -1.45220324286555     -2.48670891123446
  H           2.24763623659995     -1.92054501935891     -4.98298991465817
  H           3.87452051097260     -1.08434915395554     -4.89817805872895
  H           1.90377505515518     -3.05171913727335      1.00115303224046
  Cl          1.26519324169801     -4.75805630847538     -0.95891949015862
  Cl          2.53985949745558     -4.85148636850841     -3.53924152372319
  Cl          4.05029196437434     -4.01976343696571     -1.22314975483928
