26
Coordinates from ORCA-job P E -36.384629438080
  C          -1.17438596453426     -0.19830062202735     -2.76971710301967
  C          -0.64317594122603     -1.40868921156864     -0.39326685957464
  C          -2.02566689414070     -1.51379855858640     -0.94961472943356
  C          -2.29119018489140     -0.93636512252548     -2.11140276474997
  C          -0.50853139404308      0.75183270514962     -1.77408976885428
  C          -0.13409152263306      0.05102775938466     -0.44859224621196
  H          -2.77440050952253     -2.06055766886509     -0.39892668365476
  H          -3.26013153058493     -0.96466725953482     -2.58209332492412
  Br         -1.80348660521617      0.82612660608064     -4.32972879522840
  H          -0.60065614134049     -1.76472253990982      0.63616062112409
  H          -0.44079826895699     -0.90004863761737     -3.17947137898946
  H           0.02921921834229     -2.03654446620180     -0.98701119036234
  H          -1.20975147549449      1.56225705387702     -1.56402620731066
  H          -0.62461956889202      0.59130782310404      0.36680634926976
  H           0.37845131751431      1.19709208200074     -2.22932821728263
  C           1.35306871083020      0.07118389043022     -0.19862402942720
  C           1.85943607697832      0.55993133149262      0.99797222049156
  C           3.22198498969431      0.56515351366391      1.24129670389776
  C           4.09912084967744      0.07929651947109      0.28801336725090
  C           3.60534637025877     -0.41225951732403     -0.90850535732392
  C           2.24361535412432     -0.41694086793178     -1.14813611753076
  H           1.18047841792308      0.94252001755398      1.74707514175486
  H           3.59860689876924      0.95089304769049      2.17724722909667
  H           5.16255677886685      0.08378269891565      0.47509523499554
  H           4.28346307431456     -0.79339341077170     -1.65805916971596
  H           1.87337794418246     -0.80379716595041     -2.08696292428684
