26
Coordinates from ORCA-job TS E -36.284069490100
  C          -2.11002701197695      0.84403670771839     -1.62246154641095
  C          -0.70543364699818     -1.54982179488162     -0.97558582905395
  C          -2.02976755917815     -1.53946592561336     -1.25242427029047
  C          -2.72679620710681     -0.37081273675733     -1.62957709432389
  C          -1.58967198571847      1.01520775908113      0.51091210175158
  C          -0.74243068719768      0.00497114393252      0.86404157411032
  H          -2.62763992593846     -2.41263342954943     -1.02939202196530
  H          -3.80445683568519     -0.41718085195655     -1.69473107302421
  Br         -3.11077580793244      2.41569965092551     -2.00249182898605
  H          -0.23654079067421     -2.43198710397491     -0.57281868892687
  H          -1.06482796370783      0.97461623401681     -1.84415206648941
  H          -0.03141947489453     -0.81243477467874     -1.36950114856094
  H          -2.62338102708847      0.96699570886456      0.80981256687579
  H          -1.14679175028418     -0.85011652374270      1.38669833138907
  H          -1.21043401365928      2.00404826842137      0.31573860417696
  C           0.71195519944451      0.11301280712165      0.87117662023598
  C           1.39933275417428      1.12033363181272      0.19137064244443
  C           2.77843139451387      1.18849803164012      0.23322562673843
  C           3.50430610823717      0.25597298317465      0.95569936017782
  C           2.83755864957085     -0.75001477710619      1.63572448761406
  C           1.45945050247747     -0.82284907881431      1.58927498566910
  H           0.85549931718729      1.85863391993181     -0.37909781554241
  H           3.29166522676200      1.97483147489968     -0.30129000042812
  H           4.58210711791841      0.31250461931659      0.98720265696046
  H           3.39590991030009     -1.48142387872907      2.20182765289883
  H           0.94417850745487     -1.61062206505327      2.12081817295975
