17
Coordinates from ORCA-job NEB E -37.898238183190
  C           0.98465347180848      0.54440101910503     -0.24751274940431
  C           0.02599741493772      1.44776437130651      0.20916338143034
  C           0.93031536964189      0.12075920835492     -1.70652672278859
  H           2.01775602079929      0.69673896922460      0.05045210946756
  I           0.58064746600779      2.60384013225865      1.95421263495815
  C           0.41635213239962     -1.03686076060168      0.77166692219465
  C          -0.93778299098666     -1.13087367735152      0.46787716833187
  C          -1.78189016469829     -0.04050318788945      0.82157846508790
  O          -1.21664157276074      1.26310465767083      0.02472780487158
  F           1.22743572422363     -2.01850345615065      0.35796892571153
  H           0.75247522075659     -0.66495507915366      1.73850782571565
  H          -1.23063729819462     -1.78529255769815     -0.33865824927591
  H          -1.70514611098866      0.32281743644366      1.84501781683150
  H          -2.80523469282032     -0.09795303486942      0.47302876853849
  F           1.84652544552194     -0.83390016232228     -1.96729926184671
  F          -0.26383317796114     -0.37106910393815     -2.09262297732475
  H           1.15900774231347      0.98048522561076     -2.36158186249894
