17
Coordinates from ORCA-job NEB_reactant E -37.924800252690
  C           1.74810026253181      0.05388518144838      0.00640419810249
  C           1.21092614090129     -0.38800440045433      1.14482923182488
  C           2.04536648215761     -0.88740293799219     -1.12175794216086
  H           2.00469339934311      1.08795807876172     -0.12879908071253
  I           0.78260431683531      1.04523896970248      2.66935752959128
  C          -0.00599200133157     -4.40117804962818      3.17200819211631
  C          -0.14004059660480     -3.57382385023232      2.15343756777760
  C          -0.01343392615569     -2.09257775536682      2.28919552232458
  O           0.99774506149994     -1.66451768397779      1.38894346406577
  F          -0.14096095409858     -5.72206050435496      3.02784716837550
  H           0.19328962791962     -4.12414627043653      4.19818818470481
  H          -0.32682153463309     -3.94911941910366      1.15878144511658
  H           0.25827074073906     -1.81807122178258      3.31680441141843
  H          -0.96662916367928     -1.61131372694255      2.02858995730721
  F           3.04655580722101     -1.75196599445053     -0.80983597607673
  F           0.97103329675375     -1.66387811749581     -1.42088441923231
  H           2.33919304060051     -0.35812229769433     -2.04030945454301
