22
Coordinates from ORCA-job NEB E -43.812178702040
  C          -0.50760484887494      0.68376185507873     -1.92319326278045
  C          -0.93984151873651      1.22360698081397     -0.77787989531479
  O          -1.02484871696361      0.01380327068329     -2.96193175616860
  H           0.43521976454062      1.14946123527868     -2.25260062295915
  O           0.05447850135429      2.23090882171852     -0.39537687296329
  C           1.00752727530066     -0.28248575399665      2.22026373126167
  C           0.00545319880524      0.51038272001325      1.76786501861957
  C          -1.17983499650732     -0.05541715697776      1.06608145803568
  O          -1.80382211470718      0.80402394828687      0.13381318743731
  C           1.93676968985906      0.08075819345328      3.21415092261698
  H           1.52180997129346     -0.92199331469608      1.46024922458249
  H           0.21615414336526      1.52549114963476      1.45628535738909
  H          -1.95512525508769     -0.38179284735037      1.76308067926550
  H          -0.86899878998879     -1.01847111216336      0.58726461120874
  C          -1.04397061510450     -1.35338505930867     -2.93379618405638
  H          -1.28179338059018     -1.82759095130192     -1.93205213671458
  H          -0.05067352260547     -1.84708208213737     -3.14851996217974
  H          -1.83008340885847     -1.60552730925633     -3.68016681689288
  H           0.83390259384970      1.62607760037977     -0.27880127429108
  Br          3.68503464884687     -0.38410829432384      2.94093393341317
  Br          1.17113375183745      0.88154843946711      4.73019994478473
  Br          1.61911362897204     -1.05197033329589     -1.05586928429396
