22
Coordinates from ORCA-job NEB_reactant E -43.951120338460
  C           1.40509131215361      0.12379855143882      0.27222338897803
  C           1.22926399334891      1.34534057135045      0.78107502017704
  O           1.52725749263130     -1.04110440994898      1.01314083399729
  H           1.43556948638350     -0.00296439018272     -0.80441982519246
  O           1.06410572402430      2.43836305454668     -0.01416797798390
  C           2.90899574374502     -0.89334939801362      3.89480232170749
  C           2.62725020880822      0.18593760090487      3.18130957868762
  C           1.25936385850233      0.78841516074311      3.09588341098187
  O           1.14488263507124      1.74787633567072      2.07474130530820
  C           4.23541220589602     -1.52664403297110      4.02038224958133
  H           2.13681882117031     -1.39599739670394      4.46432802019190
  H           3.38799889918791      0.70511852609597      2.61323431422844
  H           1.04555139828206      1.34818691217085      4.01394075625605
  H           0.50634165615767     -0.00013726187472      2.97909374324294
  C           2.41373253032352     -1.97840079836380      0.44567604630639
  H           3.44393076263774     -1.60466042314205      0.43769744772424
  H           2.12159661924300     -2.22637185851189     -0.58042497991547
  H           2.35240947997807     -2.87326031854330      1.06206587526031
  H           1.12482769220875      2.18956448379108     -0.94269291771255
  Br          4.89801086926570     -1.32566953956068      5.87815286106132
  Br          4.09005035776030     -3.45724889869872      3.65770449208707
  Br          5.59103825322052     -0.81719247019702      2.83315403502685
