17
Coordinates from ORCA-job NEB E -36.205592765220
  C           0.93995428481818      0.16963417239848      0.61271687773062
  C          -0.06825041088812     -0.45968173576622      1.33831612941902
  C           0.92457500612734      1.65851693867284      0.46593983524699
  H           1.95360115071539     -0.18412004128998      0.79280429173308
  Br          0.42353567660740     -2.18580977894769      2.12015822240909
  C           0.47885340381054     -0.63727607629949     -1.17301497522332
  C          -0.86971753515238     -0.37019842564495     -1.28529500403207
  C          -1.75800559454551     -0.93073262313672     -0.30431067293463
  O          -1.31120232272692     -0.29595465062030      1.08393040891487
  H           1.16386400888128     -0.16188855082686     -1.85939654696862
  H           0.79143830769203     -1.62541328114809     -0.86031912586204
  H          -1.20448937004882      0.49238383796303     -1.84111555027929
  H          -1.63912113609299     -1.99598770158116     -0.10758398093963
  H          -2.79840819547102     -0.63520932539929     -0.37464406006872
  Br          1.64989416404172      2.41570931997242      2.15830344083877
  Br          2.12338138742866      2.26165808700447     -0.95550798124754
  Br         -0.79990282519678      2.48436983464951      0.18901869126342
