17
Coordinates from ORCA-job NEB_reactant E -36.234035546350
  C           1.59830842868880      0.07122150401187      0.14469798938806
  C           0.96404633497278     -0.92184154514867     -0.49813971969903
  C           1.99923452352150      1.27978806406555     -0.59444222340733
  H           1.82684433899360      0.00005168209417      1.19410968761546
  Br          0.44923215741272     -2.48343695621503      0.46632477675970
  C           0.11217360078487     -2.07304537684107     -4.96437770183557
  C          -0.19490130086238     -1.36118832212142     -3.89820831171673
  C          -0.00775554092574     -1.84406651624849     -2.49335571657676
  O           0.69704540355211     -0.82866869469065     -1.78591080909250
  H          -0.04845306830749     -1.69497575656041     -5.95824796320131
  H           0.52500491363270     -3.06557082335047     -4.88843547251001
  H          -0.60061435432209     -0.36304039708020     -3.97836660847716
  H           0.56281423668523     -2.77994810926049     -2.47037810277174
  H          -0.98435807398437     -2.00588965536824     -2.01535381168173
  Br          2.85884942602558      2.56977068658779      0.57190991219576
  Br          3.25691659361686      0.85315609555430     -2.06729440382514
  Br          0.45171238051533      2.16738412057146     -1.44193152116399
