20
Coordinates from ORCA-job NEB_product E -40.039618859580
  C           1.47268529031774     -1.53945766829291      1.45387912473472
  C           2.85350580384643     -2.07024872606415      1.83113031491288
  C           1.28994647682947     -1.63965280030800     -0.05336287034905
  H           1.49037357306274     -0.46599225837500      1.70092591774104
  H           3.64118599059920     -1.85262337912047      1.08798586067460
  C           0.39720638615371     -2.16301177808542      2.38099122209602
  C          -0.86784139772089     -1.34191993073753      2.42440517323346
  C          -0.93449373646717     -0.13171711056294      2.94707848224097
  O           3.09366394554473     -2.64908422749904      2.84727411176231
  C           0.08957882956651     -3.63483011606173      2.11213209700403
  H           0.86430541561067     -2.13778843579491      3.37478787308361
  H          -1.74724530433890     -1.80450361670218      2.00100470489063
  H          -0.07724606343036      0.35454612262911      3.38630503621559
  H          -1.85411246662901      0.42490063852536      2.95973097147005
  Br         -0.48864113175965     -1.18361666930984     -0.67297809506854
  Br          2.50807031149732     -0.33612322805859     -0.90851192389469
  Br          1.78972010956351     -3.39334840976283     -0.75311110566673
  F          -0.63312898644930     -3.79754546155669      0.95738106278407
  H          -0.52719931049140     -4.03457628867427      2.92273330690732
  H           1.00026626469464     -4.23370665618797      2.01371873522769
