23
Coordinates from ORCA-job NEB_product E -59.565111674360
  C           2.18345597122588     -2.31779403715870     -0.30193214629190
  C           0.80193633892561     -2.64035336612140      0.24151428262930
  C           2.17474091958302     -0.84155267823867     -0.75564439674877
  H           2.97016510571358     -2.41877196540178      0.45023810233969
  C           0.65781679417134     -2.83239610205399      1.75150291985480
  C           2.48160957739847     -3.23059872899509     -1.51605807880068
  C           3.69466432973600     -2.77174839429454     -2.28034174144540
  C           3.65288166988011     -2.42782912781884     -3.55266029767574
  O          -0.19089314884970     -2.58155774517127     -0.42648764592030
  C           2.68062890681647     -4.68046106130384     -1.06820588672619
  H           1.60540363802180     -3.20397527117121     -2.17549274955867
  H           4.61560764376668     -2.73805103757179     -1.71758357726199
  H           2.73720755868576     -2.44495649191391     -4.11991849265630
  H           4.53605093216403     -2.10191186889079     -4.07254552930923
  F           3.43931826503194     -0.40255586878223     -0.92631494055499
  F           1.54693137836485     -0.68855522749655     -1.93416844277100
  H           1.69220573787637     -0.17218480553404     -0.02623601771957
  Br          0.53263727270481     -0.99165895942246      2.43069284809335
  Br         -0.99565774508491     -3.75250660894988      2.12408569845670
  Br          2.11366325404058     -3.70118980423280      2.66570291134899
  Cl          1.25539024093167     -5.25431396332783     -0.16168581695261
  Cl          4.11060693607641     -4.86261949803035     -0.02349069670055
  Cl          2.88352842281925     -5.71805738811801     -2.49487030562895
