17
Coordinates from ORCA-job NEB_product E -29.616714594030
  C           3.21764946183639      2.25326581593721      0.71393315197361
  C           1.75190731438197      2.64200784055334      0.85539075307995
  I           3.66161243669067      0.66830636053536     -0.67521111207510
  H           3.77018400416250      3.11700174433814      0.34191059277274
  N           0.82346469852435      1.82255914737444      0.34039625947325
  C           3.78169631703846      1.89194054534195      2.09414327204044
  C           3.02614261137160      0.74298101376833      2.70315232886232
  C           2.07078259227646      0.88767070905530      3.60077715563561
  O           1.48003726253411      3.65954668127187      1.45440422506767
  O           5.14556858649920      1.59671760759700      1.90448972214798
  H           3.66083398487333      2.78817435553157      2.72575438973546
  H           3.31804521588674     -0.23375066239585      2.33884059900669
  H           1.77795783464590      1.85992367680773      3.96202229007978
  H           1.53726151991272      0.04293812987497      4.00146869780676
  H          -0.14522442563948      2.07335230348861      0.44836127087646
  H           1.05862061762143      0.97711585380737     -0.15290133854199
  H           5.51465996738364      1.23924887711265      2.71836774205840
