21
Coordinates from ORCA-job NEB_reactant E -42.292482719630
  C           1.67606119172689     -0.00847214181925     -0.05417302853948
  C           1.46964105136583     -1.34244347889563     -0.06626119919382
  C           1.45347639558289      1.01851840266111     -1.11843392134838
  H           2.03178201626668      0.40133384296353      0.87848325331019
  C           1.74554488738551     -1.99326910814330      1.18499214181703
  C           2.45320066172998     -2.78852670681032     -4.12539113943180
  C           2.25472949422465     -2.06876930069465     -3.03498482136464
  C           0.92604889453240     -1.93594214663362     -2.35503501641876
  O           1.03179655496889     -2.22524261388426     -0.96484485894516
  C           3.76880848401945     -2.92180266974809     -4.82123706536006
  H           1.64782636776530     -3.32942414289278     -4.60269806273630
  H           3.07766334735658     -1.53596494401287     -2.57977369387265
  H           0.22481213604141     -2.68441528117206     -2.73323897006755
  H           0.49677340099632     -0.94688658209846     -2.52907823031296
  F           2.20570258338674      0.81707702763402     -2.23412104591537
  F           0.15931564708910      1.03751448551851     -1.55548548347719
  H           1.68242555673983      2.02915107989454     -0.75121885294033
  N           1.97129030025067     -2.49533999536599      2.18710225076756
  F           4.77430267011277     -2.26804232955459     -4.15949784763632
  H           3.72125201555428     -2.49366730226877     -5.83078614086080
  H           4.06644634290383     -3.97588609467707     -4.89011826747320
