21
Coordinates from ORCA-job NEB_product E -42.298665507720
  C           2.39317247765819     -1.10618453398013     -1.40714671918013
  C           2.63215197517398     -2.05444148852916     -0.23869668004230
  C           1.29457618676632     -0.11130942926552     -0.99970585565571
  H           3.30399246433283     -0.51497955276147     -1.56942414144244
  C           3.12531173812576     -1.35728076507340      0.94100239238840
  C           2.03845495679077     -1.87967012385956     -2.69444508065306
  C           1.62496303725606     -0.94129392324415     -3.79439471420521
  C           0.43963499355164     -0.96907151362932     -4.37057329288433
  O           2.44925457312859     -3.23984280487184     -0.26012759058587
  C           3.24736771182456     -2.70561342233671     -3.15302809849962
  H           1.22406413646638     -2.57687988660988     -2.47368529558646
  H           2.38327532255961     -0.23584163023111     -4.10487605779262
  H          -0.32607263093677     -1.66227003436939     -4.06286945182182
  H           0.18209206419678     -0.28962675115507     -5.16372403412711
  F           1.26054415574666      0.95084098447815     -1.83058783557432
  F           0.07499979454373     -0.68858903876709     -1.05652867831484
  H           1.43469681428321      0.27932153061046      0.02273956054304
  N           3.53407094346460     -0.80251468428172      1.85426306434774
  F           4.35586656208328     -1.90257811314937     -3.27885435179962
  H           3.05753200894207     -3.14461388649133     -4.13649282878983
  H           3.50335071404172     -3.48946093248237     -2.43504431032390
