17
Coordinates from ORCA-job NEB_reactant E -28.832332831480
  C           1.90500965706701      0.03079393577159      0.10985536702112
  C           1.50813990913799     -0.14033359841997      1.36196121138098
  C           1.86273583967815     -1.04352310152852     -0.92450281679730
  H           2.29809592022071      0.98966346144459     -0.18980286733104
  Br          1.61317465187969      1.36128621478480      2.58922261340783
  C          -0.55045350274988     -2.95092132252540      4.41344151785033
  C          -0.33574830436048     -2.69574893500247      3.13810494973214
  C          -0.11667066086284     -1.31088144027512      2.61779836139994
  O           1.11270264145142     -1.30236463255061      1.90077566684917
  I          -0.88943995375506     -4.88506121103932      5.15250263059284
  H          -0.59160864642850     -2.18945085042858      5.17422035438347
  H          -0.28727193770077     -3.48131703816185      2.39868975645507
  H          -0.08116896738787     -0.58603578709057      3.44136640817012
  H          -0.93841246985131     -1.03428394703447      1.93933642756784
  H           1.41385468011386     -1.94834712969009     -0.52483546623839
  H           2.87298524684913     -1.27193325524549     -1.26179388641110
  H           1.29167589669875     -0.70484136300852     -1.78814022803302
