17
Coordinates from ORCA-job NEB_product E -28.856451468060
  C           1.68968519220611     -1.08561853807074      1.27577513143209
  C           1.02621593107389      0.24848705245717      1.08523979881875
  C           1.42579670529803     -1.95477835277271      0.04957642654736
  H           2.76718715202671     -0.92162754887636      1.39280923472914
  Br          1.69989064575770      1.60096089900638      2.35940899208334
  C           1.14805767664327     -1.65627495575978      2.59776049124066
  C          -0.31663155852333     -1.90820942486926      2.58455167381397
  C          -1.15043793144127     -1.32700661656476      3.42847347900283
  O           0.18528691119896      0.56654888109342      0.32429087817907
  I           2.19858372977884     -3.51097455334843      3.09424577797043
  H           1.40960246786693     -0.98416246697567      3.41692161760776
  H          -0.67583526915017     -2.60961476807750      1.84495155024610
  H          -0.80976797327794     -0.63410367737062      4.18121232553830
  H          -2.20892669667125     -1.51635696992915      3.39673283517987
  H           0.36134075810216     -2.01758119687135     -0.16193182771839
  H           1.81986650841273     -2.95623236122144      0.20419793489000
  H           1.91668575069862     -1.52365540184921     -0.82001631956128
