22
Coordinates from ORCA-job NEB E -39.125826333440
  C           0.49931780341839     -0.37296189712739     -0.56993790948851
  C          -0.64997805468357     -0.51473435370639     -1.35163070091896
  C           0.53322898709492     -1.11822051907569      0.74224228661536
  H           1.44875254662202     -0.35648407212085     -1.09725371993540
  Br         -0.46754443700004     -0.06203270281070     -3.25265628388908
  C           0.17182518819974      1.51289703324857     -0.11655232779031
  C          -1.10626959177028      1.50220756583605      0.44363687857781
  C          -2.18594546674547      1.11039728104670     -0.39318951751790
  O          -1.82037589183135     -0.41113420650027     -0.86989243221451
  N           1.28139840820232      1.86369558294831      0.74782691860684
  H           0.33137311736603      1.91243985983157     -1.11457751765919
  H          -1.18565487017698      1.39822507798282      1.51592463576892
  H          -2.25043599301435      1.59588417589738     -1.36494996072740
  H          -3.15249187176220      0.98661254451579      0.07851621093642
  C           1.00811331777843     -2.55050725965005      0.49989867192067
  H          -0.46565107982859     -1.13340312244832      1.18104605455960
  H           1.21130167186379     -0.63638050553416      1.44715129945423
  H           0.33073793336629     -3.06865412989366     -0.17495473649778
  H           1.04075777026190     -3.09093235022938      1.44184879891353
  H           2.00455285583693     -2.55766726588860      0.06422604459006
  O           2.23319549362632      2.38638207882263      0.21786509483631
  O           1.18979216317576      1.60437118485563      1.92541221185927
