20
Coordinates from ORCA-job NEB_reactant E -37.791862795950
  C           1.70059452187696      0.00828922229908     -0.04198544117292
  C           1.09003021933703      0.44835877325166      1.04880309951149
  C           2.04127953988611     -1.42151816117900     -0.30109422474344
  H           1.96882052420273      0.72488756414186     -0.80265839615421
  H           0.86349012797148      1.49895263228599      1.19210100979512
  C          -0.36361344063367     -0.69600232196358      5.44855405870525
  C          -0.33924876836651     -0.81042114780900      4.13089033135250
  C           0.17655895893122      0.24025543850591      3.20402935042114
  O           0.69360369535806     -0.38946023893607      2.05885868823685
  C          -0.92246795196969     -1.75261672195600      6.34606688267165
  H           0.00358422645704      0.17024061209548      5.97801631603781
  H          -0.70840503720696     -1.70117767842449      3.64130841272636
  H           0.94418518016962      0.85438868837576      3.69725254108033
  H          -0.66188471561768      0.90359305511871      2.92848176760250
  H           1.75929378176705     -2.03392196538905      0.54974007517381
  H           3.11034189612135     -1.52840091779109     -0.48164857568718
  H           1.51779040857162     -1.78048874891998     -1.18684967745499
  F          -1.36042906395517     -2.83603958087928      5.69409847673857
  F          -0.01494411012386     -2.18273350259336      7.24098021324359
  F          -1.96377999277675     -1.29468500023356      7.06795509191579
