67
Coordinates from ORCA-job A2R E -98.239288058720
  Ru         -0.72492789800601      1.78989100554334      0.13650530641459
  H          -0.71484312472396      3.33690824535738      0.10113771775477
  N           0.80662991671560      1.94336931744199      1.56260278670983
  C           0.53037256224148      2.37830486266280      2.80660928531198
  C           2.07648697623680      1.60497525883478      1.27351683426435
  C           1.50308759163719      2.45981044564623      3.79264568136825
  C           3.09030796870179      1.66886443877191      2.21960399325739
  C           2.80659203935232      2.09400659205103      3.50460368306209
  H           1.23414656280349      2.81302083561949      4.77649366666416
  H           4.08995007189816      1.37641911684987      1.94045217795825
  H           3.57753455706897      2.14521123138103      4.25701461762808
  P          -2.04921432364022      1.93656400004787      1.98901947619628
  C          -3.57292861691667      3.06765896637815      2.04786273279433
  C          -2.41075222009095      0.34915963751323      2.98644138762903
  P           1.03616584537392      1.72214019637319     -1.19905777102808
  F           1.33344139707976      0.83707670716669     -2.51021313778632
  F           1.79843274598522      3.00191199710549     -1.85038394864168
  C          -0.86644689260496      2.83016738840002      3.09799046977237
  H          -0.94600283922510      3.88219222289465      2.79620488297283
  H          -1.10251129054786      2.74999037874320      4.16203542592659
  C           2.38559615562220      1.13463142418929     -0.10995665376468
  H           3.36824341301995      1.46961378650637     -0.45116515427382
  H           2.35458225914237      0.03666501536077     -0.13064082136027
  C          -2.06254985884372      1.64439185259893     -1.12477081337273
  O          -2.89090245326748      1.51821545275797     -1.92003343461064
  H          -0.61542009048438      0.24378131792990      0.21958523830617
  C          -3.86493567764873      3.68686254989105      3.41557753696986
  C          -3.32685534699240      4.20714303597584      1.05724114400411
  C          -4.77463732554940      2.26923510571695      1.54064940458055
  H          -3.06692299261341      4.35867124823328      3.72285200270028
  H          -4.77954461594809      4.27482248172229      3.34162993891765
  H          -4.01212055793275      2.94470619558994      4.19115193047862
  H          -3.19106030133804      3.81569962120500      0.05083342489099
  H          -4.18253121220524      4.88155597831252      1.05690971408977
  H          -2.44234389687785      4.78474067247451      1.31663293329639
  H          -4.49302992259178      1.70695824889923      0.64892943055897
  H          -5.15249608622144      1.58288739945846      2.29382506970035
  H          -5.58455179522995      2.94666726964564      1.27264408943465
  C          -1.04293733908737     -0.25843949840329      3.31721690694582
  C          -3.17800521173940      0.52028689968082      4.29581508465339
  C          -3.16255841613790     -0.61287036691198      2.06343178481488
  H          -0.52164386963739      0.31673956067991      4.08061692027497
  H          -1.17181039434519     -1.27160484934395      3.69685610330521
  H          -0.41658337747186     -0.31242958939546      2.42752778842509
  H          -4.20864397236679      0.81896186197011      4.12784887162533
  H          -3.19656697582012     -0.43786452738229      4.81561782246770
  H          -2.69680524865557      1.24117519461819      4.95384432975868
  H          -4.21797580824056     -0.36692711901301      1.99611395504327
  H          -2.73592909737886     -0.56722764008689      1.06069621776329
  H          -3.08116896659483     -1.63375825458098      2.43602939779260
  C           0.87965594435038     -2.30885449901582     -0.02158155749271
  O           1.88033209061753     -1.91348456142598      0.54476580694544
  C           0.70102491973109     -2.13848303196321     -1.48182704048823
  C          -0.54928883118681     -1.94526161189738     -2.06521338891673
  C          -0.65261667486337     -1.75426162774165     -3.42986653719517
  C           0.47915727536290     -1.78419119446428     -4.22851253960447
  C           1.72456771887839     -1.98796868166639     -3.65817153360946
  C           1.83678422791570     -2.14668128219003     -2.29101065181571
  C          -0.22929550173308     -3.01044975900405      0.71414503298522
  H          -1.43661436742394     -1.90440463488725     -1.45318979340627
  H          -1.62150331108311     -1.57744454299832     -3.87242522621254
  H           0.39077855069172     -1.64020502854740     -5.29513615868980
  H           2.60869727018936     -2.00735515374154     -4.27785587813170
  H           2.80304469888681     -2.29255432459211     -1.82902414131336
  H           0.11048095608578     -3.29653379383935      1.70670428056607
  H          -0.56459954256166     -3.88398706511630      0.16091993954337
  H          -1.06621746976062     -2.32261237999039      0.81558395519043
