67
Coordinates from ORCA-job A3R E -98.207539687470
  Ru          1.63613442653375      3.49928620268717      0.20295376190116
  H           2.93209697594364      4.28648475468233      0.13462555351241
  N           2.44734993488737      2.56277708560136      1.92666024307899
  C           2.45587085779013      3.18086511172208      3.11830272962682
  C           2.94382371452802      1.28174419342670      1.83075470353075
  C           2.77872858393758      2.53695764247673      4.29231279553734
  C           3.24234809483376      0.56851878407180      3.03046502961769
  C           3.14640418517312      1.18307483404866      4.24008677558070
  H           2.76677626680488      3.07002224423231      5.22922445013742
  H           3.56452951987370     -0.45727947392813      2.94098876681194
  H           3.37424239121282      0.65188071519401      5.15247861834071
  P           0.97136844253594      5.05267617668601      1.77019416589012
  C           1.27833952624682      6.89684516591083      1.47068853752027
  C          -0.71020818196625      4.81449387539191      2.63095544643106
  P           2.82687009024513      1.79565540194592     -0.75825849449522
  F           2.67388959007221      0.81888618859654     -2.02933845442607
  F           4.29058083764026      2.26291155062941     -1.32503204463704
  C           2.15813593151222      4.65473914910994      3.12032597006771
  H           3.08896435699097      5.17012780973651      2.85496776178067
  H           1.83071393173064      5.00541236171274      4.10174390113701
  C           3.14330212493071      0.72397080787052      0.57898423189487
  H           3.59154964438316     -0.24601931997251      0.44588642390901
  H           0.82657318692631     -0.02500494978419      0.06896718632411
  C           0.98815116708305      4.37652046672363     -1.28494259307891
  O           0.63267980305789      4.99514663604956     -2.19003082221690
  H           0.24277291121744      2.35870283535608      0.36362026492366
  C           1.52875931623110      7.70835760805209      2.74314798510871
  C           2.52646454051407      6.99539172071950      0.58997021406419
  C           0.10214624014708      7.47439226978813      0.68289634956573
  H           2.42437374404882      7.36935887910913      3.25767756731926
  H           1.68224781872467      8.75078840737699      2.46607715149872
  H           0.69449785775468      7.67115637089544      3.43423462563208
  H           2.35532865559124      6.52107392603742     -0.37538437552151
  H           2.77318276411489      8.04275330609194      0.42244675881152
  H           3.38613412727664      6.51629459134378      1.05531755959653
  H          -0.15599433442871      6.81273171029280     -0.14367556465649
  H          -0.77289352387030      7.62190957011712      1.31044079878069
  H           0.37837423986126      8.44199863259045      0.26663764970953
  C          -0.62675273470237      3.43639246634230      3.29780819343026
  C          -1.09762062088984      5.82986044712599      3.70215010859932
  C          -1.77522320246160      4.78560469301905      1.53157619101747
  H          -0.04678853812551      3.47731909993724      4.21731108388844
  H          -1.62421235519443      3.07783047553773      3.55156590236833
  H          -0.15869966564162      2.70527026533642      2.63770745667162
  H          -1.29774280788679      6.81015438447993      3.27964527082470
  H          -2.01089522908733      5.49055264307017      4.19164769660661
  H          -0.32786357137956      5.91894310897919      4.46582134840189
  H          -2.02040513784157      5.78727050730773      1.19097133462958
  H          -1.42273118333374      4.21848078865290      0.66672432633223
  H          -2.69308673138856      4.32841206430296      1.90113248791560
  C          -0.38062577748094      1.51157404584986     -0.12638098809724
  O           0.48327226005856      0.53387791996492     -0.64281781573899
  C          -1.14248314022288      2.10628854578040     -1.29937224286107
  C          -2.44347563030795      2.58043939598066     -1.18252140288416
  C          -3.09020753817868      3.12552955370581     -2.27863867092914
  C          -2.45506165039648      3.19209166768773     -3.50538272205670
  C          -1.16642393352621      2.70368088235031     -3.63348855488368
  C          -0.51325289341329      2.16784552420533     -2.53923977268141
  C          -1.28245051424957      0.89628277614510      0.94076181266614
  H          -2.97215901898304      2.53075377896515     -0.24351495280450
  H          -4.09861009966641      3.49676398845154     -2.16852727361393
  H          -2.96318414738724      3.61934553866891     -4.35680492953586
  H          -0.66126262996251      2.74497310944195     -4.58622983222834
  H           0.48940180577608      1.78350764948860     -2.64772337659757
  H          -0.67597472175938      0.42702899474050      1.71698700937100
  H          -1.90256720559552      0.13146195788633      0.47524168814905
  H          -1.92430314686231      1.63478048400256      1.40911899543111
