67
Coordinates from ORCA-job A3S E -98.210601025240
  Ru          1.34236654729038      3.66736368490919      0.13361761005960
  H           2.44033633077998      4.60670537699459     -0.32400416172801
  N           2.72628789145905      2.81558789888707      1.46498353991395
  C           3.02022838628484      3.39639814008791      2.63780908443940
  C           3.25853915233453      1.58494013316398      1.17036558086671
  C           3.71923955844682      2.75056455512123      3.63488571483549
  C           3.95697801028728      0.87338797140417      2.18599070518476
  C           4.16758563642991      1.44330475871499      3.40567163782847
  H           3.93014415020747      3.25128587352662      4.56589476857714
  H           4.32441563394942     -0.11420086494315      1.95364519556554
  H           4.69693208538488      0.91070303403784      4.18154881900790
  P           1.05224345217933      5.16049007220658      1.88921904413344
  C           1.14786414145535      7.02300334253089      1.54148706608800
  C          -0.26181576212992      4.83354613236354      3.22192178538711
  P           2.34188012059410      2.15005028429280     -1.22909892372968
  F           1.68766929921319      1.19039365748637     -2.36416977625003
  F           3.46626501660582      2.63533859737774     -2.30857393331984
  C           2.62818208951126      4.83903113489084      2.79214550419024
  H           3.39288742923632      5.43475535780992      2.27884286130355
  H           2.59244051094084      5.14341863283952      3.84029775781987
  C           3.09755995804812      1.06133040807970     -0.11221092238504
  H           3.58645846150713      0.15148940172379     -0.41875932148631
  H           1.17443351432357      0.35445391527432      1.63932364976781
  C           0.13260514657128      4.40928833981665     -1.04459048121520
  O          -0.60091912519120      4.89287979177479     -1.79228615662967
  H           0.20120838503551      2.29098899264137      0.50509521283837
  C           1.74799281320195      7.84112401492605      2.68687268855792
  C           2.03631577108337      7.21288766921676      0.30991036593839
  C          -0.24950451519076      7.53270645613954      1.18785997354919
  H           2.78817792730092      7.57599152187253      2.85890041381131
  H           1.71793351918202      8.89556267357399      2.41422365409509
  H           1.20173716292010      7.72537860877234      3.61564108825650
  H           1.58708854483701      6.74401535666362     -0.56457989125437
  H           2.15687452069129      8.27629363952429      0.10829587067484
  H           3.02611844969119      6.78395714527624      0.45694403191072
  H          -0.72613398088439      6.85613991519534      0.47896473045725
  H          -0.87949264796983      7.63137697866869      2.06755151280476
  H          -0.17581756333694      8.51386749510248      0.72105777852966
  C           0.06537292282629      3.44316139761872      3.77432546361820
  C          -0.31682279559668      5.80570839984911      4.39714368665575
  C          -1.61927626557362      4.78977265551770      2.51688897919083
  H           0.94072443481927      3.46702003489010      4.42038463995716
  H          -0.77305743850050      3.07117651480212      4.36180785396142
  H           0.24880045244614      2.72404943665120      2.97816519620986
  H          -0.67013121498666      6.78866216974672      4.09883937810511
  H          -1.01867869370829      5.41583494013760      5.13445523945828
  H           0.65105365256044      5.90445542444491      4.88449879945771
  H          -2.02200140489413      5.78513296244000      2.35574496638288
  H          -1.52716728033680      4.29758854575118      1.54719418074048
  H          -2.34003271815742      4.22843507132980      3.10965278093279
  C          -0.31686624137942      1.30129430016598      0.82556473566858
  O           0.35095002026865      0.76733163420061      1.93451875643289
  C          -1.74809213853092      1.63151577367354      1.17760197422440
  C          -2.51773787041322      2.37422324529693      0.28896555331515
  C          -3.84738715376879      2.63071259510913      0.56478791486110
  C          -4.41960512455999      2.15129112350612      1.73227010454594
  C          -3.65589198233531      1.41455080435997      2.61984539264700
  C          -2.32514611012832      1.15072459428614      2.34332087203008
  C          -0.32299509968927      0.31595648003560     -0.34264937322365
  H          -2.07083289382231      2.76103428816822     -0.61804083901699
  H          -4.43701151081896      3.20828033509182     -0.13099413759827
  H          -5.45822755604843      2.35345853873146      1.94767798799218
  H          -4.09649234205069      1.03840516147836      3.53154631040956
  H          -1.72428162558539      0.57287904951302      3.02776098944705
  H           0.68424905842244     -0.04190078312314     -0.55222261802001
  H          -0.72575086450694      0.77373829983620     -1.24199722866052
  H          -0.94534023823237     -0.53697309145426     -0.07275163811978
