67
Coordinates from ORCA-job TSA2S_3S E -98.196716783430
  Ru          0.54609269211456      0.81242706765145     -1.49133317023880
  H           0.33108810497255      2.29045304636396     -1.83603830675886
  N           1.91300057500938      1.49199513779271     -0.00072304804471
  C           1.47945076782211      2.14989604264522      1.08142958618214
  C           3.23475787872038      1.23300267530396     -0.13986259443255
  C           2.33466240357080      2.53643157424171      2.09998686818203
  C           4.13969869227929      1.58766062389159      0.87202884149829
  C           3.68888650721641      2.23632483407879      1.99572922179505
  H           1.94879514902388      3.06678251254968      2.95612751178192
  H           5.18241060668282      1.34556052051391      0.74468336636506
  H           4.37213411759322      2.51954251036528      2.78173517734098
  P          -0.95234565413007      1.21734267873864      0.21869887729708
  C          -2.57301972923672      2.13998212471645     -0.12377356525005
  C          -1.23322622489822     -0.10712045025014      1.55290682190966
  P           2.49939613147432      0.94546131191468     -2.63590904189409
  F           3.14912045175404      0.24479302039978     -3.93114249914585
  F           3.00512025270063      2.40447138463918     -3.14524328611164
  C           0.02356901987221      2.49713902200660      1.13166922966500
  H          -0.11705303050675      3.42691535991893      0.56764255852624
  H          -0.31815578720898      2.65183153434659      2.15737743307599
  C           3.65270902034967      0.53192679585075     -1.33523785510827
  H           4.71061427496793      0.56730076202327     -1.57666486940436
  H           3.33325779574212     -0.75400427470156     -0.99315534079275
  C          -0.64559900307224      0.25389539111239     -2.78126669734956
  O          -1.39466501036863     -0.07239759486475     -3.59580800820029
  H           0.95008979766662     -0.85588429896404     -1.17364787260088
  C          -3.02687276169945      3.04891010862286      1.02033781554659
  C          -2.34907271543811      3.01063766518864     -1.36185588029232
  C          -3.65960516949934      1.11909072463737     -0.46169047013967
  H          -2.33832624323182      3.87775749694348      1.16396141952829
  H          -3.99888898937262      3.46952721588645      0.76498048407670
  H          -3.13295654689292      2.51795642099728      1.95945513919543
  H          -2.10888425300572      2.39546766762041     -2.22745634789296
  H          -3.25503242619622      3.57503614322940     -1.57796726716441
  H          -1.53721997889649      3.71997429018904     -1.21504974698039
  H          -3.27294167565856      0.37619715564788     -1.15913892005763
  H          -4.03039054007241      0.61710503091115      0.42758676099076
  H          -4.50207554372630      1.62097188984580     -0.93541850708460
  C           0.16950914169132     -0.50871776169575      2.02262876222259
  C          -2.04522887535972      0.30907434705507      2.77676668753229
  C          -1.89576799493372     -1.30690271074462      0.87272023407879
  H           0.62524700759418      0.27139237063856      2.63072122060868
  H           0.11019455192068     -1.41254705280599      2.62760356902921
  H           0.82891306775977     -0.72538134575440      1.18158250699075
  H          -3.08960154067365      0.47981573584864      2.53080035748874
  H          -2.00926572089670     -0.50000152652777      3.50604991184290
  H          -1.63898702964511      1.19923062912929      3.25287620191254
  H          -2.97665425951300     -1.20899117367300      0.84403538209307
  H          -1.53262761843024     -1.41004437299261     -0.15097868354725
  H          -1.65877141681995     -2.22656344333576      1.40449539434405
  C           1.61490072523352     -1.96046263093333     -1.22115627207278
  O           2.74164837147478     -1.80031251394727     -0.54303470743454
  C           0.68430046665201     -2.98160654218039     -0.60272005689926
  C          -0.48387334893332     -3.37866166939136     -1.24548776182412
  C          -1.27803415900884     -4.36840307403934     -0.69743766145781
  C          -0.92059973309349     -4.96817641921090      0.49970490912673
  C           0.23654529248494     -4.57197150265900      1.14675667404927
  C           1.03541768011697     -3.58501225116296      0.59703773596720
  C           1.81615904033785     -2.28232567456262     -2.71440497374056
  H          -0.78076586323162     -2.90927932839011     -2.17266786099074
  H          -2.18127944129481     -4.67291704733759     -1.20558398550374
  H          -1.54330294101611     -5.74215808339691      0.92411397790506
  H           0.52274780394589     -5.03624686523555      2.07964211133922
  H           1.95125986846193     -3.27754467327309      1.07881197721428
  H           2.73703511937898     -1.82669519666831     -3.06767309184418
  H           0.98842520466198     -1.94725086481627     -3.33541336573881
  H           1.92393364471407     -3.36170047994143     -2.81774301070411
