22
Coordinates from ORCA-job NEB_reactant E -41.705174385630
  C           1.32689004565223      0.20410600209928     -0.21184674512444
  C           1.22470891997984     -0.87668364799582     -1.01214991211826
  C           2.12086824937316      1.44615047797684     -0.34911434978452
  H           0.73170898682558      0.14438182039266      0.68322895102682
  O           0.40493069915141     -1.85132939025541     -0.55862166152343
  C           2.58459852387027     -0.52478449040947     -5.37076169563585
  C           2.98912653224140     -0.96536127253423     -4.18712805770290
  C           2.63291545302722     -0.29632717715031     -2.90021989393120
  O           1.77916262123075     -1.19318518960765     -2.18359703821020
  O           2.87249557170881     -1.08110628661782     -6.56445109020406
  H           1.98378715223926      0.36597134661358     -5.48629870632655
  H           3.58338204269106     -1.86553703336702     -4.10615277263385
  H           2.11022721950552      0.64262626095184     -3.09544982759618
  H           3.53558288491169     -0.10571544133120     -2.31112505371109
  F           3.46939130417359      1.23201484885697     -0.46493414043642
  F           1.79929909289488      2.19391593196355     -1.45248567245501
  H           1.98221301386046      2.10174506463998      0.52199611959077
  C           0.24677960065606     -3.01151154436542     -1.35570202334163
  H          -0.45770706145416     -3.63688991186476     -0.81167639574725
  H           1.19572156815019     -3.53829919465773     -1.47904703357011
  H          -0.15513417317277     -2.76402247239604     -2.34072096577801
  H           3.41265175248351     -1.87255870094183     -6.44034203478662
