18
Coordinates from ORCA-job NEB_reactant E -38.520052326560
  C           1.80254165133414     -0.00817878346254      0.03325084453669
  C           1.13751198879303     -0.42262487108603      1.12560851869274
  C           2.11903635128367     -0.93440779915744     -1.08730163629617
  H           2.12956318585644      1.01149315850379     -0.05685783332164
  O           0.83020921535551      0.39179873939183      2.16149681180253
  C          -0.16262175094331     -4.37405078960828      3.25321421685030
  C          -0.35576648228946     -3.48739527368173      2.29217106980347
  C           0.01584759911973     -2.04525066803202      2.42393163195071
  O           0.73325984151670     -1.68219317413807      1.25048107729612
  Cl         -0.62185992914361     -6.01858362010445      3.10348271305347
  H           0.27725799126492     -4.13293483249727      4.20935987391766
  H          -0.78452278767040     -3.76782592086662      1.34221702536908
  H           0.63103189047925     -1.87044816743700      3.31365135811660
  H          -0.89075335322338     -1.42866791660685      2.50017196577301
  F           2.90382109721685     -1.97694963674270     -0.69264248144303
  F           1.00164633009082     -1.50996536924692     -1.61413045856197
  H           2.64350874212799     -0.42817269342950     -1.91193930351776
  H           1.15738841883110      1.28325761820183      1.99733460597819
