20
Coordinates from ORCA-job NEB E -41.264079485600
  C           1.09893556117862     -0.09004947937037     -0.62056696400371
  C           0.49358193863969      0.60120409822040     -1.67407096570107
  C           1.00726987707244     -1.59210647334582     -0.62538441356404
  H           2.06058990953520      0.29001072309125     -0.29514230833412
  Cl          1.05390151878151      2.26177061416094     -1.93646195735353
  C          -0.15067054086270      0.53260675534250      0.76924951761488
  C          -1.40365069818760      0.18610265064997      0.25694083851610
  C          -1.80968870567897      0.79228861123672     -0.96373067459893
  O          -0.68970451199094      0.33848727036975     -2.06294751129890
  C           0.25636024656020     -0.00268347441618      2.11530993782526
  H           0.14576225233763      1.57569935725711      0.68299966414551
  H          -1.84266538110100     -0.75815670474750      0.53834067827251
  H          -1.70499103356293      1.87272863833271     -1.02739877325771
  H          -2.73140482154746      0.43170527369472     -1.40232310640169
  H           1.29006681126283     -2.00316100213831      0.33755607337308
  H           1.70166798198540     -1.97807911061159     -1.37069814756643
  H           0.00625929541702     -1.92244711275457     -0.88685207124331
  Cl         -0.51750852089789      1.04332719724500      3.35787524697076
  Cl         -0.27538269520966     -1.66240242294835      2.42555280508576
  Cl          2.01127151626861      0.08315459073161      2.38175213151958
