20
Coordinates from ORCA-job NEB_product E -41.310941214890
  C           1.45388262513297      0.45522606890450      2.39220333970431
  C           1.32875523885300      1.13051526980791      1.05183153550452
  C           1.14800437316807     -1.03080205171139      2.21498885756632
  H           2.48861691073913      0.58654838643253      2.72535943432384
  Cl          1.93513341949174      2.80015011235635      1.07916937314821
  C           0.53495484938653      1.19116543670976      3.40720960584497
  C          -0.87309460270712      0.66276772169170      3.37137469082557
  C          -1.85378191854008      1.27480844661186      2.73655056501490
  O           0.90584142672346      0.68250731977249      0.04349984896833
  C           1.08251027856067      1.15895733828473      4.83505452624220
  H           0.52011880579324      2.25135213984982      3.12975329016713
  H          -1.04185916640457     -0.26561819792744      3.89618512030763
  H          -1.70161792715865      2.20218113431377      2.20927113822032
  H          -2.85016848485614      0.87001837303705      2.71316604073887
  H           1.23087270088656     -1.55761848147125      3.15892906356870
  H           1.85671791872799     -1.46228970841142      1.51270225608986
  H           0.14829129042445     -1.16681050498749      1.81241866339355
  Cl         -0.01669713441531      2.09563770640849      5.88495663617719
  Cl          1.21062224458730     -0.47443365030250      5.50774193949233
  Cl          2.69349715160675      1.91733714063053      4.91563407470126
