20
Coordinates from ORCA-job NEB_reactant E -41.288123478540
  C           1.69503555653387     -0.18774408957709      0.02651919352174
  C           1.22557505351181      0.81174352266928      0.76241539301537
  C           2.04120802024521     -1.52990306409463      0.58224687735395
  H           1.85607521667111     -0.03010575168421     -1.02731893871120
  Cl          0.83876822034391      2.34135998843110      0.01124062012702
  C          -0.31439216005396      1.83971404570966      5.15789755757402
  C          -0.10525199140345      1.05438051926782      4.11296345699045
  C           0.10012134085377      1.56147147397483      2.72333383393397
  O           1.07363045517962      0.73940340034221      2.10051412461184
  C          -0.56070690607151      1.38117117025089      6.54864330478054
  H          -0.33556103088906      2.91613277238973      5.05559600864324
  H          -0.07345610657510     -0.02058402266570      4.21194048382556
  H           0.42762418101155      2.60803490294169      2.72795906383309
  H          -0.85114684241475      1.49807342148323      2.17392191842259
  H           1.77558446132940     -1.58658274387619      1.63293692911179
  H           3.10994933314240     -1.71263491196546      0.47901994291995
  H           1.51498856439785     -2.30806246813408      0.03143379767904
  Cl         -2.17546947748867      1.94987894412582      7.07656160743417
  Cl         -0.50224768968050     -0.37244760689790      6.74714314292495
  Cl          0.66057180135650      2.10890049730899      7.63493168200790
