16
Coordinates from ORCA-job NEB_reactant E -29.743963134750
  C           1.61488432625398     -0.02237129737421     -0.24975381235386
  C           2.12986366101375     -0.47747624771937      0.89062031430484
  N           0.75497750980206     -0.74961501512958     -1.05528244223800
  H           1.91195246299653      0.94948899014189     -0.60952691847068
  F           3.06713917698903      0.27485854444036      1.54329953540283
  C           4.10006277663948     -3.00572929236062      3.55756243687097
  C           3.95360272384282     -2.38527457350739      2.40366531715531
  C           2.80111396758289     -2.67150017741235      1.48671793308622
  O           1.80822444563776     -1.63545268462574      1.50739064711252
  I           5.69031480753762     -2.62774840966939      4.87620269904280
  H           3.42813249109751     -3.77008979375833      3.91071318297697
  H           4.63825611708596     -1.61049454745918      2.09069077895829
  H           2.26458937875275     -3.56743754411904      1.80746922911308
  H           3.16434421624238     -2.80539179227980      0.45918424839898
  H           0.06733988591547     -0.19709367544693     -1.54438770615175
  H           0.35340205261000     -1.55237248372031     -0.59066544320851
