18
Coordinates from ORCA-job NEB E -34.077076142610
  C           0.06241462937114     -1.33363679664951     -0.98722238744350
  C          -0.44565707706513     -0.03399988566213     -0.90095657594891
  Cl         -1.03006477289408     -2.65526705480067     -0.74907389404355
  H           0.81454777476375     -1.53901724512486     -1.73754620565459
  O           0.28616349985760      0.90601599580739     -1.56147122184456
  C           1.05474530758680     -1.29499409810966      0.79500264597330
  C           0.01741821645810     -1.01431467991130      1.67115011890609
  C          -0.62202260103980      0.24273949390341      1.55031704656873
  O          -1.29322628760500      0.30030739603507     -0.00278431928820
  Cl          1.81452849919547     -2.84702776908535      0.85998773598485
  H           1.75394719161323     -0.52005265630393      0.50252349440726
  H          -0.53656814458153     -1.84009395285325      2.09060347698814
  H           0.01928174591131      1.11481625361923      1.48520928772359
  H          -1.50410867544665      0.40498830226815      2.15423091550582
  C          -0.04182400072127      2.26630501525060     -1.32784606163331
  H           0.21290461992204      2.80406546221831     -2.23898287863066
  H           0.54311671763911      2.66409645427639     -0.49441952998120
  H          -1.10559664296510      2.37506976512210     -1.10872164758929
