18
Coordinates from ORCA-job NEB_product E -34.132810208950
  C           2.60848585097958     -0.46278412670211      1.23683903535906
  C           1.93513001998856      0.89400708817708      1.03909118718360
  Cl          1.37570941866152     -1.73681840571484      1.17666926704502
  H           3.32091884671216     -0.64656288829700      0.42926283962614
  O           2.83424054658456      1.75860419240443      0.56992536937902
  C           3.33091494978289     -0.44110022636330      2.58575375138340
  C           2.40703737206209     -0.22548606802151      3.73605749615907
  C           2.57945692912325      0.72487339696215      4.63564438355862
  O           0.79544367802422      1.14867793428132      1.29586892864850
  Cl          4.18721289480150     -2.00832466507537      2.81115329010827
  H           4.11015941221798      0.32623544416019      2.55178795518498
  H           1.57698948132821     -0.91372105151116      3.79650791152762
  H           3.40840774855884      1.41257488294484      4.58807557611377
  H           1.89623641620875      0.85294594263695      5.45636304179176
  C           2.41406409222460      3.10620453103154      0.35990815043282
  H           2.54914178127484      3.34299019930612     -0.69492055137948
  H           3.04127938195265      3.75509795698181      0.97030495408031
  H           1.36617117951379      3.21668586279886      0.64180741379752
