18
Coordinates from ORCA-job NEB_reactant E -34.102070184720
  C           2.01034588245078     -0.37158517242281      0.43468923503869
  C           2.07270834441296      0.75961305638947      1.13579342572153
  Cl          1.10436659396729     -1.71925546004291      0.97342831127429
  H           2.53831743412083     -0.49812933853274     -0.49381659169428
  O           2.92760581315307      1.74583070737814      0.73534806514313
  C           3.82040181094745     -0.75205627552094      3.51814311178734
  C           2.59992294660723     -0.34714624464020      3.82940528832804
  C           2.10838893783423      1.02345786403486      3.47164999485853
  O           1.33919707564420      0.97742204593181      2.26161390331836
  Cl          4.38651173066606     -2.33818112704428      3.83320018319686
  H           4.55653976149231     -0.11331120610136      3.05197214241759
  H           1.88143637710954     -1.02220786544506      4.26817575094552
  H           2.95127434079487      1.71487517210067      3.35379358898670
  H           1.41537787451284      1.40266944779759      4.22452099371798
  C           2.39074074184535      3.06291400165183      0.71984093627441
  H           3.24241057169190      3.73279583488145      0.62409936657851
  H           1.84111690186186      3.28586757271851      1.63675055738625
  H           1.72293686088723      3.18812698686595     -0.13710826327943
