21
Coordinates from ORCA-job NEB_product E -45.371076345120
  C           2.90431477856308      1.18490874934894     -2.25607412638722
  C           1.39513566123651      1.11700348737706     -2.53796533476218
  Cl          3.17112704882760      0.26278923954108     -0.74094663841333
  H           3.46693459204940      0.67276140838675     -3.04017573651165
  O           0.88538067123484     -0.03439732280149     -2.95173436062634
  C           3.37219326867365      2.64413789120210     -2.11884835165726
  C           3.30335301635675      3.13999184264129     -0.69511906230002
  C           2.27700490590906      3.81933973846284     -0.22338391248301
  O           0.68010696817725      2.06918990484014     -2.39533450421294
  C           4.78090734486591      2.82626837410267     -2.67774086738139
  H           2.69125058825032      3.25211196903356     -2.72651934721458
  H           4.14880110986558      2.88774916407280     -0.07126578855268
  H           1.42501116308240      4.05487935247839     -0.83811422423059
  H           2.24389812629382      4.14335360520866      0.80215826539748
  C           1.66323483050808     -1.18820165556236     -3.22870882772299
  H           0.94160109436208     -1.95705480278374     -3.49917629598186
  H           2.23175956577285     -1.51108554917141     -2.35573547924008
  H           2.33721729914060     -1.01632998907011     -4.07137286083888
  Cl          4.81758978672133      2.43365794387867     -4.41918176668739
  Cl          5.28375687596641      4.52013275624006     -2.48650129806609
  Cl          5.95832130414249      1.78469389257408     -1.85465948212698
