15
Coordinates from ORCA-job NEB E -27.247791235270
  C           0.49532737417585      0.91694807433999      0.23429559231526
  C           0.91355578346953      1.68322645693771      1.36505364277140
  C           0.49203106987870      1.41498492519150     -1.12072769580780
  H           1.51454256604095      1.84328804106778     -1.07062043008133
  H           1.27141865791871      2.70593405790411      1.13560468037629
  C           0.23190068860223     -0.53725043562646      0.34787259451221
  C          -0.83181330731916     -1.02917401758121     -0.55972670484295
  C          -1.67556513555372     -2.00316580191691     -0.27014558334511
  O           0.80506971142837      1.30573179392153      2.51586717874418
  Cl          1.78044950196859     -1.48393738549090      0.01797434124400
  H           0.02320079418112     -0.73651944285181      1.40444069062276
  H          -0.88071426092354     -0.52073860546729     -1.52564450005894
  H          -1.63901367406489     -2.52786489769490      0.67049866852392
  H          -2.42985873826246     -2.31944581855278     -0.96878743319351
  N          -0.07053103154028      1.28798305581965     -2.17595504178038
