15
Coordinates from ORCA-job NEB_reactant E -27.348928333150
  C           1.81209181300297     -0.16915149008440      0.08274123963004
  C           1.75334836711677     -0.74006077315742      1.29613627233560
  C           1.45423684497653     -0.72776697574925     -1.15224588143430
  H           2.17866959498922      0.84546580681824      0.01550518641032
  H           2.07280035767915     -0.16890825624901      2.16055176804896
  C           2.40894074185668     -4.84301137788779      0.43191701417548
  C           2.04903210837879     -3.61475026719291      0.09897551911284
  C           0.89385178880722     -2.91369932670060      0.75251138409061
  O           1.33447527557042     -1.94071705795930      1.69529104565346
  Cl          3.73587114921484     -5.65081195496017     -0.28983548643239
  H           1.88934386568551     -5.43482253099353      1.17081710695283
  H           2.59736402252836     -3.05810351835817     -0.64629392807785
  H           0.30404130041977     -3.61904496934059      1.34283067943909
  H           0.25688117228667     -2.44519841838980     -0.00498504136124
  N           1.18435159748709     -1.13391888979529     -2.19311687854345
