18
Coordinates from ORCA-job NEB E -33.950314614590
  C           0.41666686486021     -0.75902075315622     -1.01928817902710
  C          -0.80114635997450     -0.24629667484105     -1.51548373790900
  I           0.39968040553536     -2.79932706856228     -0.40096447512193
  H           1.31076667537908     -0.55529734264022     -1.60002446472630
  C          -0.72605806472044      0.83362854803177     -2.42424503467416
  C           0.58670004605327      0.30229699365963      0.52002334156553
  C          -0.63080826750292      0.08715314903520      1.18288080456517
  C          -1.84986602647308      0.44699743827409      0.49829964759905
  O          -1.88290774106254     -0.42226215946241     -0.77483307306079
  C           1.87416813285385     -0.07086827192838      1.22578161342123
  H           0.70638076748247      1.25244628089428      0.00142785541757
  H          -0.67510377303213     -0.70559510843141      1.91629800572182
  H          -1.89033292279812      1.47399262040966      0.12999590416647
  H          -2.76389236984378      0.17367220584781      1.01633892981998
  N          -0.65439344018342      1.67846786404540     -3.20062903056615
  F           1.69200687968331     -1.08712980882477      2.11994588569205
  H           2.23579264754230      0.79158788162124      1.79853466163875
  H           2.65234654620108     -0.39444579397235      0.52594134547782
