18
Coordinates from ORCA-job NEB_product E -33.984164991980
  C           2.95279454555214      1.38782381955628      1.22704209013418
  C           1.87051733274544      2.05230849596313      0.41039648486655
  I           2.60959780319120     -0.72392927227436      0.80223595754716
  H           3.93537812422700      1.59401726349584      0.79605637762895
  C           2.08637246154919      1.90164739356642     -1.02062524808133
  C           2.89733848389014      1.76350738054585      2.71130328145291
  C           1.90164104479680      0.93813531505287      3.48322030559095
  C           0.67050940378515      1.32815542386339      3.75004872418748
  O           0.93435270226446      2.65392882899564      0.86581520760026
  C           4.28580670530308      1.66189483875014      3.34646306294065
  H           2.59102452247459      2.81684857946717      2.75267526329860
  H           2.26895286796320     -0.02466430212823      3.81244613843558
  H           0.29126575995132      2.28265517584628      3.42429470956511
  H          -0.01251584684535      0.69805531763595      4.29266672211098
  N           2.28613386584930      1.83862276467697     -2.14538085523378
  F           4.79097893370462      0.39569224425521      3.21121348652846
  H           4.23494323915793      1.87480942032496      4.41892121580561
  H           4.99980805043980      2.33989131240652      2.86480707562168
