21
Coordinates from ORCA-job NEB E -50.168588460490
  C           0.26336483340942     -0.64716690932309     -0.86089629440089
  C          -1.06800670952061     -0.18665242910126     -0.97285116281398
  C           0.42152718703886     -1.99764816842896     -0.42314666028792
  H           0.95306553110281     -0.38025924842202     -1.65777639111627
  C          -1.40896467936130      0.89722472407506     -1.96750958238134
  C           0.84613041618466      0.32771664997701      0.66600094661476
  C          -0.09670641013766     -0.03957259121417      1.63056901678276
  C          -1.46539029195081      0.29714724107512      1.38190741182193
  O          -1.89592825452136     -0.38114583348004      0.00925198375586
  C           2.30028589050681     -0.02469163607791      0.89920373294803
  H           0.76116981759063      1.31383301581940      0.21696079501898
  H           0.12405848841972     -0.88109170498494      2.27133026021200
  H          -1.65714147871589      1.34586148209372      1.16179406954388
  H          -2.18317797345056     -0.11372955703207      2.08282212232644
  N           0.50695485201778     -3.09190163449394     -0.10672242078669
  Cl         -0.63414795306169      0.61298842739827     -3.53443411000977
  Cl         -3.16300663105926      0.99366906906617     -2.18337091044657
  Cl         -0.84326146151518      2.51309704439759     -1.36349089575606
  F           2.46275162263301     -1.25027424216949      1.43488167051198
  F           2.99720589910492     -0.00987604469457     -0.26263819546642
  H           2.77921730528569      0.70247234552011      1.57811461392930
