21
Coordinates from ORCA-job NEB_product E -50.203767457910
  C           3.05580737970721      1.32295722959575      0.80920068096399
  C           1.71029623138765      1.87360688570400      0.36724991062567
  C           3.00255373706456     -0.11822836562329      0.64812296393034
  H           3.84613715067109      1.70984850690225      0.15477448622124
  C           1.60362685223552      2.12853915374940     -1.14712424163682
  C           3.34508094438482      1.71759468812690      2.28007374481966
  C           2.58206272417760      0.87603976226294      3.26553582496149
  C           1.69369271438055      1.36779832269264      4.10655172928527
  O           0.81226142284006      2.14207800622420      1.10354294242177
  C           4.84859453208934      1.60631463277686      2.55063347778601
  H           3.07566731966750      2.77170884129190      2.40470165432161
  H           2.81362397653288     -0.17983427024202      3.24390145703223
  H           1.44668970954486      2.41610815071966      4.12700969053518
  H           1.16497781909343      0.73551455642398      4.79734139811975
  N           2.95561809644477     -1.25381732181081      0.54879532906872
  Cl          2.32715110449698      0.82977305372415     -2.11255051953396
  Cl         -0.07666447753858      2.37350500732240     -1.62306018625779
  Cl          2.52575961133287      3.64448019276384     -1.39344902338420
  F           5.31843282004140      0.37067874894514      2.27638644249297
  F           5.53669983369458      2.45718164999515      1.74740308226436
  H           5.10443049775093      1.84435256845495      3.59415915596249
