21
Coordinates from ORCA-job NEB_reactant E -50.200661472400
  C           1.80982385214604      0.14898077641089     -0.06623000779238
  C           1.49353892368593      1.43717528603685      0.14871571010287
  C           2.14496726465998     -0.81972068778533      0.89177754608843
  H           1.80685224841163     -0.22653560294966     -1.07917688195834
  C           1.18340094161097      2.37358401104483     -1.00096085503403
  C           4.07164492440022      2.17298027256163      3.56607843091578
  C           3.38762699716994      1.61048962626616      2.58503649229377
  C           1.89132384087774      1.59271590466271      2.51901397978142
  O           1.41592186242576      2.13198550908422      1.29135016647672
  C           5.56948021011479      2.18796795899759      3.63119859380706
  H           3.59369276000650      2.64131952202049      4.41384129346976
  H           3.90484796187244      1.14215829441854      1.75898058059404
  H           1.46083777278329      2.24143793080131      3.28510314155460
  H           1.51913126046786      0.57171160816890      2.65971992040498
  N           2.42399207329628     -1.66536484656505      1.61648501962769
  Cl          0.86394159155373      1.55437205354304     -2.52941055102686
  Cl         -0.22671960666974      3.37860948545079     -0.59746225114214
  Cl          2.60595867397197      3.44216498694726     -1.21354877561223
  F           6.00192865651308      1.61259153760437      4.78305507869010
  F           6.13624687351830      1.49483110041614      2.61913187581251
  H           5.98126091718328      3.21264527286432      3.60700149294628
