24
Coordinates from ORCA-job NEB E -56.551739385980
  C          -0.04195909246169      0.36142641958749      0.60008794615267
  C          -1.17800679030548     -0.49421068531556      0.77580861007942
  O          -0.27471530018162      1.62151303890929      0.10269493308381
  H           0.68380174395135      0.34187155000829      1.41524082624552
  C          -1.11326915402333     -1.62742877315290      1.76951511119402
  C           0.78275652869569     -0.47251879946680     -0.81248449417471
  C          -0.22014866703704     -0.45211419193181     -1.80781683439552
  C          -1.40343300580361     -1.19561621836209     -1.56049356989703
  O          -2.02921357367665     -0.58652720056142     -0.19240898514926
  C           2.08396304509125      0.23198743587219     -1.11814436459016
  H           0.99263984428842     -1.44050466827233     -0.36096084014125
  H          -0.26403815868965      0.39244197946588     -2.47768275618619
  H          -1.27076047501454     -2.23313890303571     -1.26473087926037
  H          -2.21166964400097     -1.06093278036749     -2.26871877984541
  C           0.11801921760927      2.67697166890925      0.95621793365936
  H           1.17831274717102      2.60418443623101      1.21812184876769
  H          -0.48091715232832      2.68772189969007      1.87186819442866
  H          -0.05659382909605      3.59191164113848      0.39461794566484
  Cl         -0.08089687551478     -3.01477325262348      1.20198601113789
  Cl         -0.43899839686878     -1.08387142882440      3.31268142521981
  Cl         -2.74021106333915     -2.26728687240402      2.03687254182207
  Cl          2.97958978273527     -0.79449902094500     -2.28476572676486
  Cl          1.88377871584809      1.82860085379610     -1.84053863805878
  Cl          3.10196955295132      0.38479187165497      0.33303254100780
