24
Coordinates from ORCA-job NEB_product E -56.584076723870
  C           2.72278689419749     -0.46256505466073     -1.15462252787548
  C           1.44125230120039     -1.14655589962825     -0.67796766564560
  O           2.54101894032011      0.91931877896706     -1.25479225829927
  H           3.55013876924392     -0.70160286810512     -0.46813925479440
  C           1.64514190830759     -2.32062837314549      0.30243227118289
  C           3.02545938047039     -1.03762492766886     -2.56468330271759
  C           2.03553617077652     -0.49906277946588     -3.55950341317684
  C           1.18999456018579     -1.26541604023229     -4.21985595000829
  O           0.34339478246556     -0.79528141923053     -0.98351561872525
  C           4.45980348588053     -0.72800910265521     -2.99979608668758
  H           2.94475932791564     -2.12859062281507     -2.51881525269046
  H           2.04342671764421      0.57281966837253     -3.67779156159976
  H           1.16913812757960     -2.33609460794893     -4.09642640802395
  H           0.48260805201000     -0.85023488486595     -4.91526930851581
  C           2.49198165854298      1.58519307775114     -0.01321856425273
  H           3.39449979346910      1.38597913456160      0.57601286873009
  H           1.61191254694968      1.29272446335605      0.56812101172771
  H           2.43540914638901      2.64533697388513     -0.24813881540032
  Cl          2.96723553617332     -3.39676651881277     -0.17675326628737
  Cl          2.06097132781043     -1.54118030094206      1.85456196666272
  Cl          0.15626400801861     -3.24986171976281      0.48360959468217
  Cl          5.62632579957830     -1.44844726961038     -1.86111880891259
  Cl          4.73631621442875     -1.46780613075507     -4.59605969367478
  Cl          4.78692455044207      1.00075642341190     -3.11926995569749
