24
Coordinates from ORCA-job NEB_reactant E -56.584941218560
  C           1.39111001394327      0.04985430851309     -0.09196543525628
  C           1.38781028659336     -1.23414802983817     -0.47115006737845
  O           1.01064461208075      1.06728454116134     -0.90159597173097
  H           1.71700602728623      0.31410053137822      0.90452538937409
  C           1.83632555195551     -2.34401717495594      0.43086907490754
  C           3.66449775526936     -1.76191531639551     -3.80672547455220
  C           2.96968852292367     -1.06641256895248     -2.92109700970420
  C           1.47331056496068     -1.05987046097988     -2.85581268141962
  O           1.01224589571230     -1.73527198619937     -1.69101641336037
  C           5.14671239085627     -1.84385144041622     -3.86578780116194
  H           3.17345696339363     -2.34705026319101     -4.57192922212519
  H           3.47079988441847     -0.49693511156039     -2.15133162480890
  H           1.03712583514158     -1.62388513086407     -3.68185621919941
  H           1.10246166537161     -0.02846839205952     -2.86878381697178
  C           1.14108572123091      2.36024569099736     -0.34719980146385
  H           2.18619246144753      2.58802638770856     -0.11762261875752
  H           0.54047324032470      2.46185769508074      0.56089773319948
  H           0.77595597276105      3.05209163244905     -1.10339729469467
  Cl          3.41464781351297     -2.96843938105415     -0.16593730610628
  Cl          2.04151255538672     -1.86060403999204      2.11092453293359
  Cl          0.66429237275922     -3.67880039469924      0.36912264324001
  Cl          5.64240404674261     -3.54678488326850     -3.62263186852822
  Cl          5.70859790357150     -1.32651161377263     -5.48324337211252
  Cl          5.96714194235608     -0.85359459908923     -2.65465537432233
