17
Coordinates from ORCA-job NEB E -34.602891352730
  C           0.08415157417468     -1.19078184116021      0.87630724630158
  C          -1.26260138765628     -1.24747755672145      0.59322183840005
  H           0.38802672791435     -0.60738049594708      1.73012222504164
  H           0.68807336265545     -2.06119201468761      0.66684550900091
  F          -1.66349885643332     -2.23548058206976     -0.27326605429742
  C           0.56148361650478      0.17999610424320     -0.51951778977418
  C          -0.35079685433878      1.19314312410289     -0.27238861796754
  C          -1.73736785423957      0.89289158101341     -0.42701028369393
  O          -2.05404042361050     -0.25355590143292      0.68141563722005
  C           2.02644329797160      0.42988205232115     -0.26515641056148
  H           0.40412042327791     -0.48310301553862     -1.36282869253986
  H          -0.07257827306025      1.97490726506473      0.41957166923431
  H          -2.02166570834137      0.38345061505638     -1.34432530135967
  H          -2.43708108038729      1.66992968552212     -0.14686497328848
  F           2.24215457755363      0.95269456097414      0.96525966853416
  F           2.73729293544416     -0.72155541790315     -0.31992663784508
  H           2.46788392257077      1.12363183716280     -1.00145903240504
