17
Coordinates from ORCA-job NEB E -41.478037725360
  C           0.75619634793295     -0.13897666452089      0.87757709070312
  C          -0.64413952040800     -0.12924154406752      0.64649568892541
  Br          1.33276193899735      2.11002229640196      1.40149385690283
  H           1.10551455674666     -0.55877856763323      1.80788165326810
  C          -1.62619273694147     -0.70478149234914      1.65277832723795
  C           1.27542428737634     -0.64823356555065     -0.34255564818988
  C           0.85618969514349     -0.08956022828361     -1.60476447365459
  C          -0.33009941379981      0.85104477164680     -1.40093319549269
  O          -1.22474004287502      0.27574229435052     -0.45549765725854
  I           2.51589271115438      1.15992243181033     -2.49874754005526
  H           1.99822207897486     -1.44711665310934     -0.32089405546751
  H           0.71106786897360     -0.83106432463984     -2.38887638658523
  H          -0.90574941033462      1.01509574963458     -2.31167770336128
  H           0.01568511532722      1.80750391821779     -0.99371949689859
  F          -2.58157955914737     -1.42155736297885      1.05313187856087
  F          -1.02132421115524     -1.50916331318513      2.53019501812916
  F          -2.23312970596532      0.25914225425624      2.34811264323615
