17
Coordinates from ORCA-job NEB_reactant E -41.501079815850
  C           2.37312362269955     -0.65298533230502     -0.06178588952904
  C           1.65410373340120     -1.64307704620326     -0.58910866574713
  Br          3.28128077835153      0.73593607316707     -0.94745003872325
  H           2.47473279546944     -0.58123011712223      1.00840045595381
  C           1.02666911290003     -2.65644838436261      0.36111555347269
  C           4.03198520824875     -2.62906731917205     -2.45387026647470
  C           3.40344646374087     -1.66043968012021     -3.09217569290343
  C           1.92688535356049     -1.41178008697014     -2.97289114090786
  O           1.32954714457668     -2.02200781638698     -1.84012115701804
  I           6.09775611466436     -2.95054436762406     -2.62162875502475
  H           3.54470585807972     -3.33030375563443     -1.79663990063582
  H           3.92440863846418     -0.98083724573955     -3.74947680705089
  H           1.40556405497202     -1.87275577562926     -3.81930499388672
  H           1.72051730582166     -0.33672060881346     -2.99252392713961
  F          -0.27383339793017     -2.82248405399649      0.12008214446625
  F           1.60960131117242     -3.85570336743816      0.22163037296667
  F           1.14640590180728     -2.31955111564916      1.64884870818181
