17
Coordinates from ORCA-job NEB_product E -41.496859251470
  C           3.12509219743280     -1.38532552351001     -0.44126018147331
  C           1.62273764243363     -1.34972570688376     -0.32645066344402
  Br          3.78534954758273      0.44076314939956     -0.24960581491307
  H           3.57289829772504     -1.96597728247039      0.36926821065000
  C           1.05978408850058     -2.56583478852200      0.46979581334126
  C           3.48233008993803     -1.98325799408668     -1.80591826997852
  C           2.94302646746058     -1.20076244636663     -2.94860141640873
  C           2.17994567747297     -1.73076086139791     -3.88740581280700
  O           0.89547037451525     -0.53614790897995     -0.80404626836999
  I           5.65397336277106     -2.12583889676426     -1.96665743162131
  H           3.13237916247907     -3.01771092159339     -1.83919106901699
  H           3.21919893522687     -0.15566966657603     -2.97711983727810
  H           1.90178315902252     -2.77257906584353     -3.88000490786031
  H           1.80299064436153     -1.13851320961104     -4.70184457982962
  F          -0.26281774844140     -2.57138368594481      0.52359529485616
  F           1.45446881246609     -3.71658703363306     -0.10467984615807
  F           1.53238928905266     -2.57668815721611      1.72222678031162
