18
Coordinates from ORCA-job NEB_reactant E -38.479755946770
  C           1.77072731072904      0.10444856450917      0.05803368145288
  C           1.39909958669361      1.22948239051486      0.69142769226004
  Br          1.88088876325208     -1.67158304846799      0.70477684642265
  H           2.05440238627010      0.17221311357812     -0.98022059548674
  C           1.42931065508079      2.39675159437050     -0.13682333420765
  C           2.66227798053902      0.16973298181778      4.77250342535980
  C           2.36252518665824      0.28374957725901      3.49041302277048
  C           0.98308089022103      0.56444459524621      2.97817540194136
  O           0.97946488169351      1.52565349137687      1.93693611216336
  C           4.04164469424520     -0.13024736083139      5.27567661661296
  H           1.92151696152813      0.25822400890445      5.55317273484772
  H           3.13849653658134      0.18143469605926      2.74389983649068
  H           0.36834175783220      1.01649778911213      3.76094533445147
  H           0.50015842059180     -0.36552184767870      2.65658127405835
  N           1.45705947344943      3.32121926055324     -0.81029370805452
  F           4.03297099897421     -1.23948130583578      6.06044340485370
  F           4.91268083431976     -0.37852603633780      4.27149372919139
  H           4.45765268134052      0.69280753585007      5.88345852487207
