20
Coordinates from ORCA-job NEB E -32.248268091980
  C          -0.01380383608421      0.16755475660854     -0.81267008253965
  C           1.29047531136423      0.35421619526477     -0.36262154783824
  C          -1.11482210675174      0.89415605951279     -0.07750023720009
  H          -0.15934440967080      0.12695554801184     -1.88823330044608
  Br          2.71617275529391     -0.09602199839778     -1.64811367985665
  C          -0.15091399174923     -1.72317837167037     -0.25057987424602
  C           0.16387275831712     -1.67566490092086      1.10178227304868
  C           1.47400228853831     -1.24769554449598      1.45203866299006
  O           1.61575082725499      0.27905130821917      0.86162898004236
  Br         -1.90219826460258     -2.29418757874782     -0.75584839674069
  H           0.57513287977693     -2.10786939791929     -0.95803963563923
  H          -0.63329330494462     -1.56141622994918      1.82124353203491
  H           2.29954419678355     -1.72093285139948      0.92465513629365
  H           1.67448927320253     -1.10965829621833      2.50681802331576
  C          -1.19564422175206      2.33719336322948     -0.57231712661056
  H          -0.91151340230580      0.88738014154919      0.99481832880130
  H          -2.07256364464470      0.40444757187894     -0.25791328560115
  H          -0.26963046824547      2.86617436064276     -0.35916000628664
  H          -2.01278996584511      2.85304107576916     -0.07498317700952
  H          -1.37292267393526      2.36645478903245     -1.64500458651220
