20
Coordinates from ORCA-job NEB_product E -32.290195658020
  C           2.53076575210741     -1.00135837190416      0.52488335718848
  C           1.18571648089464     -0.83326616610242      1.17161338013404
  C           2.44176591778985     -0.43564332571783     -0.90083535770211
  H           3.26919789425489     -0.43490139150363      1.10402551463791
  Br          1.28199120973320     -0.93285436727128      3.14462068690719
  C           2.87766716914855     -2.50015652375598      0.64419113670314
  C           2.17465643462258     -3.36617377275718     -0.34254731711798
  C           1.25041327995635     -4.24204649882101      0.00647219876567
  O           0.13022305854107     -0.67744626328364      0.67130884962167
  Br          4.83352233937089     -2.77311852980229      0.48305055455076
  H           2.66434403923615     -2.83437334209974      1.66357039618328
  H           2.47412518497730     -3.25428832050713     -1.37468067048625
  H           0.94963112228138     -4.37807426830191      1.03287901772916
  H           0.75143238795985     -4.85565749164985     -0.72265155785090
  C           3.77076032901439     -0.40948460015350     -1.64434115495412
  H           2.06732108617733      0.58788834327728     -0.81515936426586
  H           1.69998017640138     -1.00098425426049     -1.46777591185416
  H           4.54215339540363      0.06526905824553     -1.04241957511553
  H           3.65744224160813      0.15886626207083     -2.56416748678537
  H           4.10789050052102     -1.40739617570161     -1.90793669628903
