25
Coordinates from ORCA-job NEB_product E -47.187220399560
  C           2.51083965400704      0.76908985836430      1.00299225922786
  C           1.33574370080354      1.30314166986114      0.22161016595005
  C           2.46579464335123     -0.76335163427733      1.01806369466114
  H           3.42597721172452      1.10726421090452      0.49442579772521
  C           1.32893801410255      2.83205567107913     -0.04383305704908
  C           2.53441735429978      1.41291506346303      2.40799980590301
  C           1.55044902187155      0.81167661981605      3.36460432804851
  C           0.39158581379578      1.37276090276458      3.65326502262638
  O           0.43304602578875      0.63942957669629     -0.20280278277665
  N           3.92445709191162      1.33417585913348      2.96639003029504
  H           2.34864831607763      2.49017099728834      2.32062353648050
  H           1.84395365675910     -0.12348846056306      3.81817824635683
  H           0.08351414358968      2.31060417322327      3.22097146737290
  H          -0.30224269865832      0.90954632744758      4.33196210963186
  C           3.69792884116779     -1.40256718097005      1.64524680199701
  H           2.38119822020932     -1.09523859448880     -0.01862411423879
  H           1.56229039320464     -1.09120119829023      1.53438474518680
  H           4.60831153088301     -1.01297724597482      1.19485133044531
  H           3.67207648746683     -2.47735192557427      1.48530881530109
  H           3.74316432421410     -1.23264397544836      2.71825447536879
  F           0.62334973606213      3.45832452781046      0.93157191545051
  F           2.57094067548278      3.36152159061433     -0.01498157861802
  H           0.86025178219450      3.06915076484096     -1.00994227112139
  O           4.83751202268551      1.51582582011777      2.20222526812036
  O           4.02485403700494      1.14036658216172      4.15005398765478
