25
Coordinates from ORCA-job NEB_reactant E -47.175009274250
  C           1.84462860300085      0.25749479244453      0.20885417551569
  C           1.35544460370534      1.49464564372035      0.26886823135556
  C           2.05016129618903     -0.80858665523784      1.24046585005429
  H           2.18179741406434     -0.05349497033933     -0.77126777916642
  C           1.27625598530594      2.32182084220367     -1.00280859417541
  C           2.73560540301556      1.18892650314163      4.24476315806930
  C           2.36575661366374      1.72528008856599      3.08779404130282
  C           0.95661090860730      1.90075097718301      2.62989579192399
  O           0.84743595878412      2.26152768107985      1.27896242128402
  N           4.12216840534173      1.05863064328146      4.58497173937809
  H           2.06738727700301      0.81973150449623      5.00754203278616
  H           3.13271744793076      2.07864620940686      2.40753981408055
  H           0.51374679852041      2.75272525822489      3.16250792712206
  H           0.34564828555638      1.01654460135384      2.85817258344854
  C           3.53641757791746     -1.15254449153238      1.36784759027793
  H           1.51470070664448     -1.70068934600618      0.90214535261985
  H           1.65494509404639     -0.54033036710307      2.21602887591589
  H           3.93530019828866     -1.47546376352666      0.40967582523317
  H           3.67404494966699     -1.95695155496450      2.08598540714174
  H           4.10908242653390     -0.29065075105070      1.70167288277737
  F          -0.00813170371358      2.63506815845798     -1.29829648899317
  F           1.92764764800694      3.49916935168204     -0.85108632329497
  H           1.70563167769679      1.80810324871984     -1.87531504839255
  O           4.94776229930275      1.35359858806858      3.74849266452114
  O           4.36993412492069      0.64514780772991      5.69598786921438
