19
Coordinates from ORCA-job NEB E -32.880157598850
  C           0.29285211565118      0.23797686322406     -1.27841928034089
  C          -1.06091439686529     -0.12178414544166     -1.20218359990089
  I           1.60226860072093     -1.24377780792020     -2.03630119337077
  H           0.53928164853181      1.21614044007075     -1.67193016934069
  N          -2.00783515271612      0.89152323685319     -1.16003842699736
  C           0.61397046452521      0.34576042083749      0.69527560765599
  C           0.23762134676485     -0.92320035721144      1.12784954263925
  C          -1.10706611057751     -1.32204130625287      0.93326191278737
  O          -1.39166256292388     -1.26704751380994     -0.71727567392662
  C           2.03373937196960      0.81870317387053      0.88668453439573
  H          -0.09496165802686      1.15905561768579      0.83183533080088
  H           0.99918497917490     -1.68736243448113      1.17742480073082
  H          -1.87536240640274     -0.62194486187304      1.25032048502601
  H          -1.35157857133900     -2.35297891985198      1.15124681663318
  H          -2.96141502119421      0.57239531933827     -1.08540954621275
  H          -1.87432759323052      1.68357792594266     -1.76598062265092
  F           2.92520536186397     -0.21638924722517      0.94774096046510
  H           2.11510333512325      1.35573293541420      1.84099332975276
  H           2.36589624895043      1.47566066083050      0.07490519185381
