19
Coordinates from ORCA-job NEB_reactant E -32.909990398600
  C           2.34902575275392      0.55630581821912      0.47155591468720
  C           1.41014735704110      0.87978211756762      1.36779506420600
  I           3.76647928482560     -0.99923338304851      0.45626210685192
  H           2.44844587111897      1.18119963390772     -0.39732079879020
  N           0.63731022033700      2.01922329498282      1.15244416648693
  C           3.51226296660054      1.20623749151883      3.65946766334158
  C           3.15224798109664     -0.06518747915697      3.69808785713056
  C           1.82844819559867     -0.60014162166795      3.24544351885777
  O           1.02030156658169      0.32035123641265      2.54015645651241
  C           4.83979829906740      1.71782942041541      4.11650484258702
  H           2.85638210716207      1.97435392045220      3.27406458113390
  H           3.82617762924334     -0.81441382870310      4.08798046912601
  H           1.22317772046755     -0.85580031125569      4.12378258609717
  H           1.97114450061062     -1.51938341734314      2.66601892439439
  H          -0.20583623921026      2.02307010379123      1.70770835362492
  H           0.48850272241184      2.27470539472452      0.18943223946411
  F           5.58788098318718      0.74638465392624      4.73001191980963
  H           4.71512946762895      2.52943168965576      4.84418721792221
  H           5.43077361347715      2.08288526560124      3.26631691655646
