18
Coordinates from ORCA-job NEB E -36.690283583430
  C           0.83814965614288     -0.13213911898018     -0.99587650788645
  C           0.17649784144780      1.11743249428835     -0.92512238920819
  Cl          0.20894086713196     -1.30555102822086     -2.11805839891637
  H           1.92032919113370     -0.15515453399413     -0.93704998192753
  N           0.85985157664026      2.18730713357588     -0.38897186141183
  C           0.18581053847765     -0.80129045040452      0.75057724596896
  C          -1.20474143232981     -0.76525388481572      0.60892398258475
  C          -1.79927311102397      0.50280475848134      0.43870967367568
  O          -1.10436313943707      1.16985757688952     -0.95459806849920
  N           0.84097787452009     -2.08818415003413      0.83111060053335
  H           0.69926486751432     -0.06440502955369      1.36040315038991
  H          -1.68899907990162     -1.64668219845943      0.21696647719777
  H          -1.50186228783936      1.28369017498802      1.13163872891668
  H          -2.84926950512140      0.52993915544355      0.18284814230794
  H           0.35368948471930      3.05840326174263     -0.36469769122813
  H           1.84864130645751      2.25917594732042     -0.55676118601666
  O           0.25046542438872     -3.06236430889173      0.43516127283726
  O           1.96588992707906     -2.08758579937533      1.28479681068205
