18
Coordinates from ORCA-job NEB_reactant E -36.716581790620
  C           2.27429783845012     -0.76084564817832      0.81122716478191
  C           1.22958728838980     -0.31564066367860      1.51543708620954
  Cl          2.20601670546299     -2.22044967009530     -0.10491113883635
  H           3.21394030183412     -0.24043931823042      0.76687965353989
  N           1.30620988663893      0.79386798380748      2.35892207553526
  C           0.73907243873228     -3.17628381882608      3.06363780751430
  C          -0.20784825745506     -2.32381587768742      3.43491561318131
  C          -0.68620174298550     -1.15332984963968      2.64255027788076
  O           0.01555102689376     -0.93689796979729      1.43631366012781
  N           1.11675732051635     -4.26465057141357      3.91579136847586
  H           1.27953416172926     -3.14252058610877      2.12992122550345
  H          -0.69498235534441     -2.46671938094868      4.39218149828008
  H          -0.66012395272583     -0.26522672441238      3.28740446496385
  H          -1.72660972537213     -1.32992325126916      2.34549106022774
  H           0.52271615897968      1.42837489501310      2.26738396899551
  H           2.18728188637981      1.28011216595672      2.28953813226740
  O           0.56108159087824     -4.37699033675278      4.98865413345886
  O           1.97901942899758     -5.00712137773884      3.50056194789281
