18
Coordinates from ORCA-job NEB_product E -36.748103247740
  C           1.83351578628163     -1.61706520914655      1.88494329827465
  C           1.68092093541325     -0.10717409374905      2.14494488356494
  Cl          1.31455045106943     -2.08964339685140      0.23836558631243
  H           2.89895819135339     -1.86925299846150      1.96026994846671
  N           1.72953460642587      0.66932933742137      1.05606604600267
  C           1.06402161696782     -2.40199757153682      2.94860658690082
  C          -0.41819594635442     -2.42056549590450      2.72367991109451
  C          -1.24751450835647     -1.62122448793382      3.36642667367868
  O           1.57867503198429      0.30905044247725      3.27514529231298
  N           1.60127992003577     -3.79425452041101      3.04567359199054
  H           1.29207689978889     -1.91288170671023      3.90686818203011
  H          -0.77162952563715     -3.12600864274976      1.98564536040793
  H          -0.89798771738580     -0.91481010383128      4.10105368166277
  H          -2.30523327141848     -1.63457456864379      3.17148312844359
  H           1.63725009329502      1.66537554575503      1.16741547977958
  H           1.75730412920773      0.27266502788005      0.13149684757665
  O           0.81142102314855     -4.67471409220217      3.26272889531217
  O           2.79385228418069     -3.93115346540182      2.92638660618826
