22
Coordinates from ORCA-job TS E -45.285258244440
  C          -0.75865842712810      0.39025166162073     -1.16466661425848
  C           0.57713605155965     -1.88274381052042     -0.01613144392656
  C          -0.75627425005816     -1.86135556137494     -0.24331003582158
  C          -1.41178221154810     -0.75583232602524     -0.83365953084283
  C          -0.10356982625758      0.97737448447467      0.93474380588234
  C           0.65414209474946     -0.01826319065045      1.45804293073740
  H          -1.38248232733814     -2.62924573109500      0.18864439042376
  H          -2.49373091240301     -0.76112612057369     -0.83719130631959
  C          -1.51624696118581      1.56514638851643     -1.70562005914049
  H           1.02394670143772     -2.68403499012617      0.54852450586300
  H           0.29132395128314      0.39727313111819     -1.41040889769471
  H           1.25669359241869     -1.28973275442473     -0.59979599831357
  H          -1.13123845851708      1.08054480491213      1.23125811085603
  H           0.27756507668556     -0.71787045883197      2.18431440719660
  H           0.36122327287153      1.83348684481300      0.47722047862406
  C           2.14583465983836      0.08478489919651      1.40721241477041
  F          -0.86748520883453      2.73017256717269     -1.46124538520458
  F          -1.61931641504353      1.48039623355057     -3.06131385815957
  H          -2.53837899063431      1.65885122037432     -1.30541367245846
  F           2.76860783282018     -1.06996308729160      1.68686502182963
  F           2.61032960300790      0.49503933774183      0.21470069593084
  F           2.61236115227612      0.97684645742316      2.30723004002636
