21
Coordinates from ORCA-job NEB_reactant E -41.860783260460
  C           1.60530687084262      0.05913563818387     -0.14622291137490
  C           1.36554090515806      0.87551343643501     -1.18071182341378
  C           1.64849209597039      0.32138566516521      1.31697484554557
  H           1.78433059752459     -0.97925901705180     -0.37078025308843
  H           1.37316793089958      0.41155258753568     -2.16301525763981
  C           2.73830193170247      4.95895701732169     -0.47052182307227
  C           2.46744729397194      3.71183651442342     -0.10020478516731
  C           1.10475795391769      3.11481159261188     -0.26370347857010
  O           1.08649663754404      2.15751925769987     -1.33209319668133
  O           3.90558593255916      5.62343511092033     -0.38547533606965
  H           1.97638217665581      5.60476881531158     -0.88806619165494
  H           3.22350322258089      3.06238563474165      0.30885956045364
  H           0.39180266944513      3.88084772814127     -0.57869701884294
  H           0.75017620233762      2.66818056304461      0.66582291348448
  F           2.57228310959126      1.22773118207827      1.70511024289746
  F           0.47846845628474      0.75836937358861      1.83944297505918
  F           1.94416858836565     -0.80301175770743      1.98669169002890
  C           5.01500273136196      4.93416538466680      0.14730441873780
  H           5.84049017984239      5.64334509579738      0.14059529055113
  H           5.27223282670435      4.06591658748572     -0.46656376850623
  H           4.81986168673965      4.60551358960638      1.17215390732353
