21
Coordinates from ORCA-job NEB_product E -41.847775571660
  C           2.56102966301239      1.64012382249779     -0.44779969462206
  C           1.63217254529603      1.04669942833965     -1.48791596800180
  C           2.32506791827466      0.98889573651252      0.91085081937165
  H           3.59358695593205      1.40872197052635     -0.73254479859166
  H           1.94797720855471      1.30756275782658     -2.51522540268955
  C           2.39982421854010      3.21078622129310     -0.50119638729534
  C           1.71687127465077      3.75323736911907      0.72362086553163
  C           0.48894588691834      4.23501362402946      0.70325805787252
  O           0.64951004620235      0.40855408969710     -1.26513266283492
  O           3.62361622861273      3.82389884868333     -0.81957995739129
  H           1.77407213971009      3.43897061294092     -1.37418944270843
  H           2.28718268767746      3.73476920679484      1.64050883145159
  H          -0.10085486684620      4.25710502743698     -0.19805384554587
  H           0.02022664102667      4.61557122976914      1.59355251783465
  F           3.18212910623190      1.44412197130156      1.84625032281639
  F           1.10129064683301      1.15810670509023      1.40628846923297
  F           2.54376225959577     -0.33274956166903      0.84053254556232
  C           4.59134693548275      3.92907835207772      0.20684312839650
  H           5.50900415605147      4.23270157737027     -0.29351932150803
  H           4.75857149904273      2.97866399938745      0.72040534241918
  H           4.31586684920023      4.69186701097496      0.94024658069953
