77
Coordinates from ORCA-job A2R E -102.918359016950
  Ru         -0.32110307351655      1.80255685536197      0.22570554857268
  H          -0.43208964580510      3.34620332794460      0.11163065530843
  N           0.90977122929554      2.11019012603663      1.85486890159414
  C           0.41702662038987      2.60149984666707      3.00856099753328
  C           2.22812803198625      1.83340474110777      1.79228476128514
  C           1.21705825941058      2.82531923462967      4.11867248331643
  C           3.07562637818358      2.04228907369084      2.87206304369614
  C           2.57190015750292      2.54362703938396      4.05917858631550
  H           0.77603952623115      3.22276964921339      5.02050102904467
  H           4.12369884832161      1.80439743842683      2.77305393830086
  H           3.21274389231814      2.71010333762058      4.91078948279573
  P          -1.94400783417670      1.89764714058289      1.82135092347086
  C          -3.55311581939658      2.88070081258171      1.58768122807672
  C          -2.33597071945666      0.33280787376474      2.85237558664512
  P           1.65095733330441      1.87528887219838     -0.85598584446315
  N           1.97704227527778      0.99436727191482     -2.23222199538313
  N           2.50948873784646      3.27238441698629     -1.30685198896817
  C          -1.04038133880484      2.94342473796562      3.05566015029096
  H          -1.15923003342289      3.96983290431324      2.68622261114732
  H          -1.43580078291476      2.88705941132642      4.07340543799513
  C           2.76311894434904      1.28809708875189      0.51199900594423
  H           3.81446937333718      1.54896797076303      0.35990961930849
  H           2.66166628779960      0.19471328798679      0.49943056332068
  C          -1.36148376170560      1.49607927860367     -1.26018402473422
  O          -1.97877629611761      1.25787075042679     -2.21251866753283
  H          -0.08367182484811      0.27061792827291      0.36708990909078
  C          -4.12177998681383      3.52493853400236      2.85269418096258
  C          -3.24553342162622      3.99639728419087      0.58707166736016
  C          -4.58005836883270      1.95338889350729      0.93653426092053
  H          -3.43889161250984      4.26814544014910      3.25777874022351
  H          -5.04974928264083      4.03579384641483      2.59540145875859
  H          -4.34704696238549      2.80204788233380      3.62771033723165
  H          -2.89155738269343      3.57554079110418     -0.35269750629934
  H          -4.14746313960794      4.57694621253523      0.39428549278045
  H          -2.48107166968702      4.67368076204108      0.96214279713248
  H          -4.10406765379865      1.38898740392398      0.13270247176559
  H          -5.01403444304057      1.26174832625517      1.65394392486975
  H          -5.39221900513493      2.53893624320935      0.50639694205779
  C          -0.99220420200613     -0.12930324708750      3.42714355133859
  C          -3.31780817188322      0.48292432304386      4.01181955430152
  C          -2.83198950277409     -0.73494179154625      1.87514940514367
  H          -0.65179038284292      0.52136272907670      4.23115730979420
  H          -1.08751848540629     -1.13680127344712      3.83312800437999
  H          -0.23172748704802     -0.14987083613908      2.64638261000183
  H          -4.33056564904396      0.66862759468201      3.66564731318123
  H          -3.33216396846034     -0.44792168353986      4.58006337921453
  H          -3.01885324455533      1.27869608401754      4.69137085852066
  H          -3.87926295036073     -0.59897811294302      1.62198491241707
  H          -2.24683506232306     -0.67761231059986      0.95645052186210
  H          -2.71871285429289     -1.72943393749110      2.30759409663586
  C           2.54344007633719      4.37491266193106     -0.36076143994305
  H           2.12496770460252      3.57806471561078     -2.19936735752058
  H           3.09366258709919      5.20700152654367     -0.80112147231801
  H           1.54331999139739      4.72161948809506     -0.07348439733744
  H           3.06504162664234      4.05229668618716      0.54168221221917
  C           3.34498311035254      0.63262919558218     -2.58123864804174
  H           1.33002169420426      0.21763024546359     -2.33207020581399
  H           3.69440285146119     -0.24759423690036     -2.03583459873802
  H           3.39597608666175      0.43131900391352     -3.65281560555394
  H           3.99093282512155      1.47729539488717     -2.35101758449900
  C           1.18157226011427     -2.27355524130057     -0.52186574403158
  O           2.33130211725971     -1.88137329942439     -0.53968898117117
  C           0.30179967209562     -2.13126552619863     -1.70643352730630
  C          -1.08704450373093     -2.08441047797675     -1.61024414853286
  C          -1.85378829848613     -1.86577900143069     -2.73923908436723
  C          -1.25127853104707     -1.71481188249451     -3.97748512521135
  C           0.12763002884669     -1.78624042497813     -4.08864149979486
  C           0.89921761542630     -1.98429760985193     -2.95987005144253
  C           0.58236257801602     -2.91839704442902      0.69942908209236
  H          -1.57203001191184     -2.19109774034780     -0.65341552899320
  H          -2.92815646817376     -1.80557845974169     -2.65238654503829
  H          -1.85630200278700     -1.53960940738166     -4.85435888459720
  H           0.60149208967691     -1.67769189552758     -5.05322715753993
  H           1.97601965737335     -2.04516391503991     -3.03027228474080
  H           1.37179081164283     -3.18678964973656      1.39775430704082
  H           0.00172003365737     -3.79719749889896      0.43133336979007
  H          -0.07595547747255     -2.19613518077119      1.17921267486390
