77
Coordinates from ORCA-job A3R E -102.870644208290
  Ru          2.19537045190973      3.45261143581326      0.12585247771664
  H           3.50434336038049      4.20377119675172      0.22268007888313
  N           2.79490555796980      2.41282301192190      1.85401625129655
  C           2.85536436656394      3.01530705455332      3.04852241238146
  C           3.14306457311650      1.08213291615573      1.74649188731400
  C           3.09798727683454      2.33115835186439      4.22015996133513
  C           3.32207243623577      0.32667399553883      2.94547121392308
  C           3.29349442117904      0.94169470572050      4.15816319593775
  H           3.13725141277490      2.85347672017272      5.16276125613706
  H           3.50822519105501     -0.73276907607656      2.85262802352501
  H           3.44148970465675      0.37914191434538      5.06880856669968
  P           1.46998349207221      4.99258417563836      1.74290654990750
  C           1.85712712146892      6.83863213994594      1.48300468482603
  C          -0.16605337915545      4.84161357923425      2.73058733835711
  P           3.42876228629207      1.72864205631274     -0.81726123738260
  N           3.47585145822330      0.83139527956431     -2.24124841672316
  N           5.02166593343660      2.28609951260150     -1.00618094663696
  C           2.67822490273981      4.50928003688914      3.05601998112158
  H           3.63321173942346      4.95751136199611      2.75585835008540
  H           2.41116505004513      4.87864016272315      4.04860603197005
  C           3.29474708387485      0.52538634952965      0.48540271300189
  H           3.66934492798603     -0.48285626449262      0.37054717000783
  H           1.41160188486284      0.32636828984162     -0.21548952619829
  C           1.85436956827435      4.28597791762422     -1.47971673141655
  O           1.77178156480696      4.77645381568737     -2.52315845105556
  H           0.65061731596344      2.50814567431112      0.11717513908729
  C           2.17818327417180      7.63065269971458      2.75187291234932
  C           3.08713195374403      6.90684694886581      0.57355563300366
  C           0.69192743315591      7.48053500409671      0.72944952619619
  H           2.99528527624302      7.17692062866128      3.30703912264497
  H           2.49341138797337      8.63325286388942      2.46334850230282
  H           1.32345648390292      7.73594723355202      3.40920298632313
  H           2.89567152224532      6.40700521384905     -0.37518621024154
  H           3.33522858967825      7.94811096872551      0.37176227288325
  H           3.95319937798232      6.43848781517492      1.03748031829267
  H           0.41612864117359      6.86161863297754     -0.12481368446861
  H          -0.17653459956714      7.62090998692978      1.36803313854372
  H           0.98859882489702      8.45887331504126      0.35350480333500
  C          -0.13152610594621      3.45389602274424      3.38093920554337
  C          -0.38742990858294      5.87544485960169      3.83180606150673
  C          -1.34777864254139      4.88558303427991      1.76051609561167
  H           0.48300637419217      3.44714633521571      4.27791954779961
  H          -1.13873194386945      3.14865041750226      3.66401036701478
  H           0.26545276617189      2.70899172960377      2.69213616414887
  H          -0.62208099403496      6.85449474954531      3.42353540264552
  H          -1.23770545267512      5.56121642841376      4.43803473802667
  H           0.47367597160246      5.95594765833627      4.49077136276962
  H          -1.38884409583193      5.82160466610981      1.21119965272264
  H          -1.28623536192506      4.07107805405822      1.04327811483521
  H          -2.28230099715096      4.77889934490683      2.31196792845649
  C           6.12417588918557      1.34457196304353     -0.93077186471649
  H           5.19214042594640      3.13729894628795     -0.48200696120830
  H           6.99624314627618      1.76280029909019     -1.43697331185582
  H           6.40238272196970      1.09470985825971      0.09904593012561
  H           5.82600014746552      0.42989814761467     -1.44074861391037
  C           2.64143418090066     -0.27353808263643     -2.66090771372048
  H           3.66004264169781      1.48113505662063     -3.00106838096918
  H           1.65206586116466      0.03139563184946     -3.00998514336442
  H           3.15528134062156     -0.79848036668979     -3.46996301819623
  H           2.51571293815338     -0.96267939550043     -1.82916827797683
  C          -0.01821246474759      1.66678730127278     -0.29268173502098
  O           0.75504365109697      0.65677328633110     -0.87065256921878
  C          -0.92271567090045      2.21651606145494     -1.37471273586310
  C          -1.10173216044936      3.57482469459332     -1.58604992941240
  C          -1.94986985527771      4.02503498615443     -2.58299355823588
  C          -2.62442652000835      3.12063595804849     -3.38342302923411
  C          -2.44229599800277      1.76226649295668     -3.18551733086862
  C          -1.59957787902101      1.31276161715158     -2.18662319941913
  C          -0.85901487371383      1.08923287672485      0.85464214341236
  H          -0.56259948870781      4.29434181008391     -0.98136338303806
  H          -2.07441073065728      5.08640751512158     -2.73817547295499
  H          -3.28236227340523      3.47213485889112     -4.16437223214468
  H          -2.95667977903416      1.04959548879223     -3.81349846366936
  H          -1.44184741374543      0.25485264230952     -2.04201097639090
  H          -0.21540893703726      0.70702225213653      1.64716623456954
  H          -1.44851013958023      0.26127766787557      0.46439557637276
  H          -1.53705823818982      1.83184150619823      1.26554608056203
