77
Coordinates from ORCA-job A3S E -102.873092330250
  Ru          2.06526587705422      3.56618286258133      0.09623986001024
  H           3.43904453237832      4.18979083231156     -0.01227049416565
  N           2.76190880066624      2.54040629952033      1.79588247720407
  C           2.93320089219015      3.16272184607903      2.97026811910401
  C           2.99128870005173      1.18242996211554      1.70774530980470
  C           3.18581027421792      2.48859190439453      4.14507042460585
  C           3.20648048414770      0.44585161603273      2.91389444278936
  C           3.28806479140442      1.08817281892681      4.10913442984840
  H           3.31045134944526      3.02792131922512      5.07038613374364
  H           3.31735626576006     -0.62574449938166      2.83841377095979
  H           3.45342980629219      0.53806303529309      5.02440936274411
  P           1.69080808651213      5.23541364586653      1.67180381012919
  C           2.26916880911499      7.00735290356421      1.30971127416776
  C           0.06805983351795      5.31179727042077      2.67361527815726
  P           3.01320167409865      1.69638697662566     -0.91182615977056
  N           2.78454428588461      0.71858268930025     -2.26513766529406
  N           4.59803759817408      2.11066960096282     -1.36417784599697
  C           2.89296879553976      4.66733031474898      2.95016114689004
  H           3.87483695853209      5.01674234501148      2.60748743817320
  H           2.69836106822461      5.08346697907723      3.94135843642026
  C           2.98113331912699      0.57322048985226      0.46319444014716
  H           3.26097254973748     -0.46628712314401      0.35763056707079
  H           0.92605528388010      0.45418054087331      0.03720455323099
  C           1.50663617183214      4.42830540564364     -1.42777168762019
  O           1.18813334459651      4.96343591319649     -2.40323756683879
  H           0.50396198139590      2.71620474715536      0.28296856294319
  C           2.72707221044257      7.79625416447258      2.53754285119886
  C           3.45626368692338      6.90545343506562      0.34881038210037
  C           1.14565210712278      7.74208145075619      0.57794682671430
  H           3.56835557564582      7.31113485416203      3.02660191237474
  H           3.05760732355091      8.78306670891038      2.21392314294881
  H           1.93585155342017      7.93717747275897      3.26424666005720
  H           3.15688821160928      6.42340550445123     -0.58099009178012
  H           3.82726780442138      7.90353823814293      0.11913792984869
  H           4.27447195189841      6.33337819687086      0.78280079312608
  H           0.74448744860306      7.10938780932724     -0.21409799453812
  H           0.34130300254587      8.02714299267461      1.25073666635330
  H           1.53380908051714      8.65123591379992      0.12061326893251
  C          -0.01878751027467      3.96066914235416      3.38978577492982
  C          -0.06609688978542      6.40793654133787      3.72630568480571
  C          -1.07870818157853      5.41621709094860      1.66645870704148
  H           0.62370559769504      3.93233528991643      4.26687111000737
  H          -1.04016116706729      3.76761249722645      3.71641446599633
  H           0.27233194585111      3.14444295877630      2.72930228728524
  H          -0.15383947108012      7.39491811339672      3.28107158149433
  H          -0.97438471959262      6.22520640975313      4.30134552927626
  H           0.77100787729382      6.39957672162016      4.42109358555438
  H          -1.18125608085914      6.42628535552490      1.27982217057043
  H          -0.89668508604026      4.74763419056071      0.82445575645216
  H          -2.02166200526932      5.13382958809284      2.13347070049727
  C           5.62831928241311      1.08836772393698     -1.38782208668498
  H           4.90684848447061      2.97423914140138     -0.93129834530331
  H           6.44158217270318      1.40500031800839     -2.04361639765037
  H           6.04055674752951      0.87472223838109     -0.39552782936696
  H           5.19123640071197      0.17390670438056     -1.78587599247903
  C           1.87217443224103     -0.38553101722334     -2.46639618107451
  H           2.87285569407781      1.30309063737820     -3.09140975125556
  H           0.84880197270613     -0.07783849918392     -2.69375780455879
  H           2.24962870938807     -0.99266519537099     -3.29295070585898
  H           1.85219956322975     -1.00075742563079     -1.57005442914954
  C          -0.32758904068264      1.97242847257547     -0.02349759408105
  O           0.24042306251887      0.81353166925088     -0.56175764819702
  C          -1.13552948762846      1.64643783093994      1.22070894518977
  C          -2.43018873360382      2.10947082531246      1.41870503181680
  C          -3.13144387617119      1.76917633526775      2.56316349974592
  C          -2.55361141170906      0.96269160493805      3.52714997294773
  C          -1.26338977646028      0.49714554998450      3.34086550449738
  C          -0.56280026959358      0.83571160285963      2.19882716846172
  C          -1.14121992287796      2.59490689714421     -1.15652652866212
  H          -2.90577780740809      2.73798276235720      0.68323504699136
  H          -4.13809205426589      2.13747386598312      2.69916479195207
  H          -3.10368272428215      0.69919943434782      4.41828556525117
  H          -0.79670381457228     -0.12885404107690      4.08674650866698
  H           0.45002177705504      0.47272573467161      2.08397438706809
  H          -0.49747486589310      2.69036664270877     -2.02948144747990
  H          -1.52837922471730      3.57659047941459     -0.89972775907483
  H          -1.96355108894887      1.92872837008918     -1.40975404141733
