20
Coordinates from ORCA-job NEB_product E -51.780639827300
  C           0.75266994779026      0.01134646810939      1.29851542311934
  C           2.07872292516092      0.27358741147627      2.00219377880413
  C           0.76830353180522     -0.51478505104500     -0.13720303509417
  H           0.32150214350432      1.02130290371027      1.22535076996224
  C           3.31123021614535     -0.67205499163303      1.88379849023653
  C          -0.16663355773139     -0.81505834479239      2.22523236325818
  C           0.47064829095757     -1.99311988099760      2.87297334435023
  C          -0.04554049997699     -3.20908139846794      2.83467370362688
  O           2.19588544086939      1.21626736803004      2.72804184302147
  I          -0.92695963897414      0.49559425967409      3.80949721054923
  H          -1.05930229178954     -1.11013413468064      1.66846456564412
  H           1.36086606929890     -1.79129466908994      3.45315629693359
  H           0.42499695314562     -4.03223482905206      3.34089908429744
  H          -0.94530854358179     -3.43044533166791      2.28457525219941
  Br         -0.88976226953206      0.10824895681881     -1.00380407182653
  Br          2.27533411301127      0.27686513914034     -1.11676087725383
  Br          0.77722858202582     -2.44357323272703     -0.38558205739468
  F           4.33832808268306     -0.01799518187399      1.34236634854301
  F           3.67828319232604     -1.05991014643375      3.10897651719286
  F           3.11890731286220     -1.78162531449794      1.16963504983055
