21
Coordinates from ORCA-job P E -30.871686633040
  C          -1.07006289080217      0.43677151571813     -2.45175990496442
  C          -0.52755246148124     -1.68073652002827     -0.40773162399916
  C          -1.26856258613026     -1.92737355457965     -1.68689278399153
  C          -1.50569890802186     -0.99239082529744     -2.58999278873576
  C          -0.67092638559812      0.75601210360833     -1.00465195216747
  C           0.19946928726669     -0.34652974383918     -0.42500856938187
  H          -1.61156842295021     -2.93987607793534     -1.84062989194369
  H          -2.04343601799488     -1.22330103341856     -3.49717451265396
  C          -2.16009686269166      1.39690650843729     -2.92256696457760
  H          -1.24001735179989     -1.67961996260919      0.42620700529756
  H          -0.20167578082560      0.60041021589230     -3.10562478318312
  H           0.17725807204339     -2.49622964991519     -0.22400474788936
  H          -1.57226109777472      0.82428954037239     -0.38814565514334
  H           0.54785759364573     -0.07856354856082      0.57525452352084
  H          -0.14508073180822      1.71140851610342     -0.95594220540553
  Br          1.85709680720094     -0.50084586586876     -1.48691098743284
  O          -3.25838935422841      1.02650170094060     -3.24439738743030
  C          -1.75780030805856      2.85082269733470     -2.93978887875290
  H          -0.72255492672413      2.97634157734281     -3.24370338859484
  H          -1.87750496145815      3.25984132257552     -1.93741482897143
  H          -2.41359271180867      3.40265108372689     -3.60838967359930
