21
Coordinates from ORCA-job TS E -30.762984588940
  C          -0.39164505013894      0.11915279384621     -0.68637395506174
  C           0.97026774370784     -2.18553026481676      0.32082970646772
  C          -0.36494408811774     -2.19752423746224      0.06670713894921
  C          -1.03074175363489     -1.07198550173193     -0.44700827947677
  C           0.22591481068872      0.54496301455996      1.42402382017606
  C           1.04531322088776     -0.44338806737200      1.85923040367906
  H          -0.97299578067765     -3.00873552829388      0.44324131674168
  H          -2.11235841952083     -1.06747198911207     -0.45844280336393
  C          -1.18588628172820      1.31282073278854     -1.04253356382484
  H           1.43681210745710     -3.00410271961693      0.84521371347446
  H           0.65444128101127      0.14561360900314     -0.95016665938061
  H           1.63937066325152     -1.56420791253379     -0.24668614765318
  H          -0.80618993002278      0.55118609526304      1.72745923195878
  H           0.74394113807405     -1.21337319333645      2.54642882157791
  H           0.63212176796640      1.47859133346628      1.07633991219307
  Br          2.93823926312861     -0.19256834332884      1.81531534435690
  O          -2.36532929874113      1.40900169938489     -0.78561100495151
  C          -0.41130467781474      2.40176404876516     -1.74384162062259
  H           0.44863196595620      2.69939819125628     -1.14747702780068
  H          -1.04968074045342      3.26299689411633     -1.92022540326674
  H          -0.04397794127915      2.02339934515506     -2.69642294417226
