15
Coordinates from ORCA-job NEB E -30.353514122550
  C           1.11884804189069      0.44515293256147     -0.61252942871732
  C           0.33048747072746      1.44135464427861     -0.01971777240497
  O           0.83519954342477      0.12051713290561     -1.90415426037124
  H           2.17413508831864      0.41063629442513     -0.34225945344099
  I           1.19225358830834      2.27019170007194      1.79526583405445
  C           0.35566580925566     -1.08112783602884      0.38128667315828
  C          -1.00182773176663     -0.96260085031111      0.10742299742125
  C          -1.68354829063664      0.16597103289995      0.60696834565626
  O          -0.91889204513069      1.48454767457078     -0.13316338951923
  F           1.03189426132383     -2.09419711657745     -0.20733299458509
  H           0.76799199940810     -0.87946071523511      1.36582190110810
  H          -1.37304270638972     -1.45185628587626     -0.78099454742622
  H          -1.50396599926069      0.44489520803050      1.64122278604959
  H          -2.70784346855163      0.30737429077361      0.29272994767535
  H           1.38264443907851     -0.62139810648884     -2.19056663865823
