15
Coordinates from ORCA-job NEB_reactant E -30.380626269940
  C           1.88025419407556      0.14977437997318      0.17127940170866
  C           1.57858236044500     -0.48909487097117      1.29834061844232
  O           1.72124906676501     -0.37794410927008     -1.06056796529847
  H           2.28692113984344      1.14705700302123      0.16012258730376
  I           1.92107494171483      0.48224957987615      3.16454016136785
  C          -0.38735949946474     -4.22136389325372      3.04466511252770
  C          -0.33834734787726     -3.49656751935365      1.94350307935328
  C          -0.09022058619492     -2.02545861975434      1.95992298270743
  O           1.16137992798182     -1.77799556707839      1.32050678186507
  F          -0.61316224361667     -5.53834559327348      3.00939537514634
  H          -0.27868861869427     -3.85336357692714      4.05522015191154
  H          -0.44747077982849     -3.96455188837292      0.97687483214524
  H          -0.05470528900155     -1.65241037750038      2.99155858796883
  H          -0.88795374050561     -1.49562525701847      1.41925242104604
  H           1.40584647435787     -1.28935969009683     -0.98091412819559
