15
Coordinates from ORCA-job NEB_product E -30.391227148280
  C           1.52637181951216     -1.65669674691871      0.78190668821723
  C           1.04654594749887     -0.26298988012535      1.09978645225705
  O           1.10923269434667     -2.03668043330043     -0.48676122002794
  H           2.62086340938372     -1.70226301794527      0.77537133864893
  I           2.14410036306200      0.68843771266882      2.69938042525646
  C           1.01461810628397     -2.61397747216678      1.90680034843831
  C          -0.47421060255817     -2.77394887974768      1.84822703602831
  C          -1.31287802497760     -2.03818757091008      2.55259481483984
  O           0.14026357276057      0.29307216820743      0.58501318807778
  F           1.62893456389991     -3.82781213997400      1.72191621028888
  H           1.34950775966364     -2.24503829771697      2.88444992178989
  H          -0.81673631044693     -3.53935516703312      1.16626388576513
  H          -0.97305391904408     -1.28433626191958      3.24451547029441
  H          -2.37788468352250     -2.16230718165432      2.46866386239216
  H           0.16082530413774     -1.87781683146397     -0.58582842226645
