17
Coordinates from ORCA-job NEB E -37.035080806690
  C           0.59839222095432     -1.11531516879147      0.49822949732812
  C          -0.78341897293284     -1.59207252041358      0.07156129424942
  I           0.74552183066564     -1.65496998386682      2.59382327693575
  H           1.31364113687565     -1.75906111216203     -0.02082688142454
  C          -1.90339288887714     -0.95797663445953      0.73887349348627
  C           0.89051836585643      0.34010377254729      0.09366026925397
  C          -0.26447529471797      0.88451471295810     -0.71839776163658
  C          -0.38256355876365      0.72701973732526     -2.02744216949476
  O          -0.92569167016620     -2.46690793605144     -0.74637546508044
  N           1.14042339579821      1.36542594907607      1.14990275575990
  H           1.80580175272031      0.36102730880926     -0.51333283466629
  H          -1.02796085485716      1.40151931641501     -0.14710679450708
  H           0.37043476739751      0.24002320732515     -2.62473457673824
  H          -1.22979892689271      1.13004739357432     -2.55114161274935
  N          -2.81016099931958     -0.43933700717297      1.20764663935401
  O           0.53333001296473      1.32132696817455      2.18202517775664
  O           1.92939968329446      2.21463199671283      0.81363569217321
