17
Coordinates from ORCA-job NEB_reactant E -37.046795306110
  C           1.89172195522808      0.35424883429834      0.01143406989939
  C           1.46198672989724      0.48456601023110     -1.25049499418889
  I           2.18675867600856      1.77458500729036      1.52938583702700
  H           2.12444620702283     -0.63967790327552      0.35580715744332
  C           1.36854003188439     -0.75376463240534     -1.96464180195915
  C           3.03564629222464      4.43143845076662     -0.96206486664708
  C           2.62313943907114      3.31453828274951     -1.54753512090889
  C           1.20306069617587      2.85843477417055     -1.61726149557801
  O           1.07415345756977      1.51741535374087     -2.03171229942695
  N           4.42463838376849      4.79673503881270     -0.97206816318823
  H           2.40500315684661      5.13768456735851     -0.44485450680679
  H           3.35648014813731      2.68283194986727     -2.03759305687723
  H           0.69071187975499      3.42083227807989     -2.40811481300379
  H           0.67239720197104      3.04713252086018     -0.67713908423827
  N           1.29669643023198     -1.75002600704869     -2.52188297726329
  O           5.21051419051431      4.04226850484020     -1.50050856791866
  O           4.70840512369273      5.84775696966344     -0.44385531636445
