20
Coordinates from ORCA-job NEB E -40.657108409070
  C           0.31993405683344      0.71953894897480     -0.79034336292787
  C           0.36503861143928      1.71814102896713      0.19547285389565
  O           1.42362084623323      0.02604024255097     -1.10081696416724
  H          -0.42108900097617      0.84676148330807     -1.57819385928361
  F          -0.75835099797291      2.52212434839844      0.13304829993334
  C          -0.64529220332120     -0.66251906061617      0.56692774434842
  C          -0.74296541590919     -0.06611791370043      1.81789995326557
  C           0.41942993662591      0.36686968103571      2.44145618826043
  O           0.97134867074979      1.70525261061804      1.26700775675612
  N          -1.83898442292308     -0.97859955656089     -0.16532200068508
  H           0.17375179207309     -1.33457247116311      0.34582862891714
  H          -1.69760321029265      0.36532805100774      2.09082205765445
  H           1.33347896659598     -0.19075018451225      2.30238987270058
  H           0.35313514439709      0.92963071211791      3.35835125324421
  C           1.33683989303314     -0.78417091295645     -2.26496155670819
  H           2.30047936189864     -1.27919152342221     -2.35810434387278
  H           1.15182271651660     -0.17002806090987     -3.14989268585372
  H           0.54198103419531     -1.52884828078256     -2.17158230392180
  O          -2.89411581105706     -0.52896070695802      0.21265408220719
  O          -1.69245996813924     -1.67592843539684     -1.15264161376280
