20
Coordinates from ORCA-job NEB_reactant E -40.688537479610
  C           0.89851018065363     -0.19183479396599     -0.02106246699691
  C           0.93189749180020      0.08753858028601      1.27855640683603
  O           1.40865253144613     -1.34548052650272     -0.51670100253976
  H           0.46231076457399      0.51996984467323     -0.70960800855408
  F           0.30478683086580      1.22035924619430      1.71533639177506
  C          -1.38162420606433     -2.75372425361675      2.92879969364208
  C          -0.20241073020943     -2.31400395776904      2.50674132345238
  C           0.60284819286040     -1.24722257650476      3.16944573047181
  O           1.50714939264676     -0.62804861016919      2.26152671072459
  N          -2.08051927479351     -3.79127325678998      2.22774809412155
  H          -1.90634234019125     -2.39737613898015      3.80218072014117
  H           0.23227674945635     -2.73954869062841      1.60852629802255
  H           1.24263417490477     -1.69273018852820      3.93878826315034
  H          -0.04423737033301     -0.49754765292673      3.64308943684795
  C           1.54415665916695     -1.39263406658851     -1.92071019083367
  H           1.86412390449066     -2.40489024102989     -2.15848974725235
  H           2.29782969891914     -0.68015486801153     -2.26973738318634
  H           0.59193824481571     -1.18522872365905     -2.41842447477992
  O          -1.58107745444441     -4.24702664905588      1.22281315561730
  O          -3.14170344056457     -4.13974247642675      2.69848104934021
