20
Coordinates from ORCA-job NEB E -37.867116998070
  C           0.39068461844432     -0.69615265930155      0.78026095410093
  C          -0.97527477128782     -0.54214215168316      0.43694679134545
  N           0.97314230376270      0.06128565676975      1.82086794434361
  H           0.82055181693253     -1.68728311335687      0.67906201255754
  C          -1.63106238063684     -1.62754655213534     -0.40972743497610
  C           1.17882296462863      0.23642970297532     -0.75262754023190
  C           0.55748588657643      1.49894443153694     -0.63021250883448
  C          -0.79148987993011      1.64831935102043     -0.88614949176409
  O          -1.52067632281836      0.60120664900339      0.47776761817572
  O           2.50385572293199      0.08713709385893     -0.50928851572224
  H           0.87539097036171     -0.41597937803088     -1.56380973160767
  H           1.05152506572637      2.22628878540959      0.00177982658424
  H          -1.24939392881620      1.07231804229481     -1.67600104876867
  H          -1.27030904740144      2.58898613574783     -0.66962809910173
  H           0.35273682942276      0.81485464286283      2.09813574051431
  H           1.22923596530230     -0.50395587453364      2.61875377089060
  F          -1.18708582833772     -1.61659315048712     -1.70160115326040
  F          -1.33245522319149     -2.86184722927836      0.06553695791794
  H          -2.72420731693656     -1.51541415135297     -0.43361589661108
  H           2.74852255526680      0.63114376868007      0.25354980444802
