20
Coordinates from ORCA-job NEB_reactant E -37.896215316210
  C           0.94212759861677      0.01220107141691      0.12835044484507
  C           1.75766535852605      0.07806497182450     -0.93766233116161
  N           0.38062119323841      1.11163370349030      0.72874398959923
  H           0.73274298352289     -0.93794444223263      0.59516952427531
  C           2.42048668162091     -1.16366844555041     -1.45375028730591
  C           3.43779971872065      1.65219130279213     -4.33258526295572
  C           3.80338591860562      1.17146796270205     -3.15173617495684
  C           3.26398833001471      1.71791317243672     -1.86454787184079
  O           1.92559322202471      1.28621850290660     -1.58313610052530
  O           3.83775956116069      1.18830005302790     -5.53493223935817
  H           2.77196095505025      2.49734284191277     -4.43459734856943
  H           4.46238480753630      0.31663671375168     -3.09273768218446
  H           3.17316360918093      2.80651486881930     -1.92523307060325
  H           3.92075973411251      1.45676272461219     -1.02830373844037
  H           0.46628147780704      1.95694220896316      0.18351997687478
  H          -0.51792570527985      0.98126958718092      1.16352070704456
  F           2.29487187108355     -1.30986742770357     -2.79737646827173
  F           3.76941662238394     -1.18417444667875     -1.21573329898765
  H           2.00502914252996     -2.06508330781987     -0.97885068688310
  H           4.38218691954396      0.39937838414809     -5.41312208059461
