21
Coordinates from ORCA-job NEB E -44.519806146380
  C           0.62407853060673     -0.86672684654954     -0.34362534153716
  C          -0.38040940858888     -1.03341484279400     -1.32801777912568
  C           0.50231914981706     -1.70934086047002      0.90865116094918
  H           1.64603088120513     -0.85939071123239     -0.71907222734887
  C          -0.05704146326704     -0.79042768174178     -2.68199336809281
  C           0.25537237760459      0.91546823549611      0.12932337417275
  C          -1.10141988396625      0.87233684830505      0.49387010320339
  C          -2.05423386293774      0.43619028579283     -0.50066352754644
  O          -1.64589031936877     -0.97889902203358     -0.93513120742629
  C           1.23643243547914      1.47881405420782      1.12666564174443
  H           0.47651198218649      1.34419350900285     -0.84951998074355
  H          -1.36916236101313      0.76905786427099      1.53524943953606
  H          -2.04224698091480      1.01266276921732     -1.42766657852025
  H          -3.06693199994330      0.31302134880299     -0.12893998081533
  F           1.63589955028720     -1.60347121740298      1.66455655242636
  H           0.41989525674961     -2.76401061839956      0.62053466833393
  H          -0.34819706404445     -1.43703714170824      1.54067055016379
  N           0.21536365097228     -0.62088769954578     -3.78521122341588
  Br          1.04512148099739      3.45423452984237      1.02983023366364
  Br          0.91683662052887      0.98636985371734      2.97360746934914
  Br          3.09167142760987      1.08125734322218      0.67688202102959
