21
Coordinates from ORCA-job NEB_reactant E -44.549780095460
  C           1.76899005696762      0.29632406008352      0.46772323163734
  C           1.59175203260238      0.92944399026596     -0.69962798221242
  C           1.35829749801207      0.66779462754948      1.85694041639544
  H           2.28285027300961     -0.65391663924746      0.42086723790646
  C           2.09105931604975      0.26762822127345     -1.86387425038626
  C           1.77025566669634      4.34881797089124      1.71955721725538
  C           1.80761356475046      3.73154679140391      0.54883795325348
  C           0.62203825137587      3.04730359043414     -0.06331374274996
  O           0.98725523313992      2.10234175542933     -1.03856455838394
  C           2.89346221297574      5.05532126104259      2.37267251523949
  H           0.85850708735769      4.37137543649144      2.30586476351394
  H           2.70654250129424      3.70530325575005     -0.05301676937212
  H           0.04144414888255      3.78904524159079     -0.62631946994652
  H          -0.03067212981744      2.61314649045782      0.70261139520583
  F           1.94433083890673     -0.19521105647060      2.74455594206618
  H           0.27444381478602      0.56355630279445      2.00642034753824
  H           1.68043427028229      1.67398747633207      2.15093603472115
  N           2.49962559574690     -0.27147536880162     -2.78658452290214
  Br          3.26211836632725      4.18262992938550      4.11476264377290
  Br          4.54588012875497      5.08104538739586      1.35478124394618
  Br          2.36797127189903      6.92499127594812      2.73127035350136
