21
Coordinates from ORCA-job NEB_product E -44.551295077290
  C           2.30877891993608      2.03931798950316      0.22700588030723
  C           1.33638186129511      1.69330100446419     -0.89278904009856
  C           2.67560818030838      0.80375628402697      1.05920326193880
  H           3.23751494601318      2.33733158808525     -0.28726851495563
  C           1.69420819945772      0.48681213974306     -1.62581314054342
  C           1.75180192430442      3.26321787021754      0.98687316295709
  C           0.46467342468423      2.95260527524091      1.70442612944392
  C          -0.64457046913286      3.64406105298487      1.52365465452945
  O           0.38476291775055      2.35641331454920     -1.20421432591473
  C           2.73204943965798      3.93023822996304      1.95261691806716
  H           1.53160244175880      4.01596823748164      0.21586108333901
  H           0.49113769456870      2.13444836055951      2.41041971728873
  H          -0.70211672146537      4.46650461491671      0.83065431677415
  H          -1.54566415377347      3.40481604581254      2.06017203675355
  F           3.95905690898282      0.92048828159338      1.51637161360332
  H           2.64886259733552     -0.10343828915803      0.44521989280546
  H           2.03313423601151      0.67221899298695      1.93408996957577
  N           1.95708016650902     -0.43568189136069     -2.24920387785729
  Br          1.99660198639163      5.68037363086841      2.46511295527174
  Br          3.02162119480879      2.94731772259794      3.60718164935676
  Br          4.47367430459726      4.27242954492341      1.11762565735747
