16
Coordinates from ORCA-job NEB E -32.790540054340
  C           0.13001237160835      0.00190434092505      1.44604592865531
  C          -1.14354110779452     -0.49284312563506      1.21684497983236
  H           0.22224329259658      1.07537918044326      1.55290639468423
  H           0.80327145406583     -0.57423290264765      2.06578455418585
  Br         -1.39676877257294     -2.41401414718729      1.46446390459537
  C           0.79473270263296     -0.12171630415296     -0.39097854104443
  C          -0.18472129403886      0.52617911618310     -1.13794953656845
  C          -1.50749877815811     -0.01672374420855     -1.11439080891549
  O          -1.96173107336019      0.07384979475320      0.41397750852473
  N           2.09135708352651      0.53424356470497     -0.30203793770448
  H           0.90284406400241     -1.20163823132536     -0.42791401252494
  H          -0.05035479409242      1.58165615704270     -1.32914262998676
  H          -1.59166611898836     -1.08552095010414     -1.30839560577944
  H          -2.27115365763047      0.55695641021286     -1.62578181065990
  O           2.10337788318886      1.74122394533873     -0.27008896440846
  O           3.05959674501435     -0.18470310434285     -0.25334342288549
