16
Coordinates from ORCA-job NEB_reactant E -32.813656526010
  C           2.28751096045926      0.24416983693904     -0.31488458041700
  C           1.48392956591768     -0.44984144356519     -1.10122727150827
  H           2.91031658000234      1.03811314373534     -0.68545616577024
  H           2.34824422472939      0.02207205488775      0.73278465268384
  Br          0.40542843386876     -1.86366261005624     -0.43574317802599
  C           4.21650222169219      1.53459794073057     -3.43938098357729
  C           3.35124571916824      0.54616832451465     -3.25162594929319
  C           1.87367457226293      0.72069607625601     -3.12005074363424
  O           1.24840459496533     -0.33508365351290     -2.42603334224154
  N           5.62061963912414      1.27196862027742     -3.59552804748326
  H           3.96597827082547      2.58303993064392     -3.49697737429286
  H           3.71984029100017     -0.47283316491971     -3.21088493403801
  H           1.42498692693404      0.68708414004722     -4.12029229277316
  H           1.62798471862359      1.68717772238411     -2.66003314591795
  O           5.99743288127816      0.12303280892544     -3.54652516438051
  O           6.33150039914832      2.23750027271255     -3.76334147933033
