18
Coordinates from ORCA-job NEB E -29.664124118710
  C           0.20310700723903      1.12741141652662     -0.41303933533775
  C          -0.96022820230860      0.62238272957153      0.20095299661140
  N           0.43831083092624      0.94122155444726     -1.77923750666531
  H           0.65036122391892      2.02553864348656     -0.00319223526448
  N          -1.23067049113497      0.98120789258083      1.52487174212076
  C           1.36984807414411     -0.34544207525584      0.37042581771870
  C           0.80197965521867     -1.49207984430037     -0.17087482153214
  C          -0.50914699758373     -1.81579839987994      0.23359336215357
  O          -1.47543441652560     -0.47264481268908     -0.24130785952271
  Cl          2.95226152169531      0.12284019940164     -0.15518157211965
  H           1.20674555823406     -0.09806764728325      1.41303384118674
  H           1.15192586157590     -1.82873754473382     -1.13478164156561
  H          -0.72524926196043     -1.76924750468045      1.29489541840282
  H          -1.00537469770458     -2.62841711150232     -0.27738605493864
  H           0.53254033859256      1.79065061143141     -2.31342533781301
  H          -0.21872921122183      0.29136316354527     -2.19027544133449
  H          -2.09340719401599      0.59792843133065      1.88010730791832
  H          -1.08883959908907      1.94989029800331      1.76082131998147
