21
Coordinates from ORCA-job NEB E -52.987933473580
  C           0.61395964131129     -0.77399545757871     -0.30537305110790
  C          -0.54702475822898     -1.57359623567812     -0.96234146051694
  C           1.14985887344908     -1.27010272339540      1.04505527911501
  H           1.45549865899161     -0.89679918859593     -1.00391456321830
  C          -0.79073449168534     -2.96283925241765     -0.66162788387025
  C           0.12179761437358      0.69524928053982     -0.37579977674234
  C          -1.04905987846929      0.87422166381816      0.55165276705552
  C          -2.15939820629305      1.47199166077849      0.16580092245701
  O          -1.26203411360226     -1.02764318267769     -1.77885626748790
  C           1.14012160558483      1.83809001282153     -0.22575870958094
  H          -0.24471466956418      0.79354440960188     -1.40728059491824
  H          -0.95193679779446      0.44265973690441      1.54215598328193
  H          -2.28919781036908      1.86187299119231     -0.82785383696277
  H          -2.99229133350143      1.57257711644257      0.85714992113727
  F           1.12924420031933     -0.34227174688237      2.00460332401154
  F           0.51078272755167     -2.32425818411516      1.55705545387361
  F           2.43025464965536     -1.62772269884488      0.91026613290794
  N          -0.99801908922273     -4.06285485851481     -0.47246155886083
  Br          2.89870742719928      1.38906184607757     -0.94233278586623
  Br          0.46750143527431      3.38296702774101     -1.24055788590600
  Br          1.36668431502047      2.53984778278297      1.57041859119884
