21
Coordinates from ORCA-job NEB_reactant E -53.009421826680
  C           2.00788754179806      0.43331578077834     -0.10201580305451
  C           1.45300038149462      0.51509255451835     -1.32635064393970
  C           2.10152913640459      1.41515109123025      1.01624695350142
  H           2.52447200074828     -0.48585935211049      0.13389776481981
  C           1.63239060436954     -0.65998989770078     -2.13710343186333
  C           1.43880883628305      4.63660544690534     -0.40282173450336
  C           1.48023323461548      3.63341085304592     -1.26493228140624
  C           0.34696681894233      2.67475875680751     -1.45668509900462
  O           0.75098583407634      1.42930069245604     -1.99827558864492
  C           2.49941294988054      5.64391775777084     -0.19241101460502
  H           0.57028841789492      4.78946910486110      0.22692959530707
  H           2.33946578065578      3.46319011678909     -1.90052881718741
  H          -0.32577094458892      3.07232009272553     -2.22680787718687
  H          -0.22988580878390      2.53807329656040     -0.53668352465744
  F           2.51134051219970      0.80819284398192      2.13306051002719
  F           2.99273569220157      2.40104762004716      0.77654976335098
  F           0.94807740242357      2.03750132682950      1.33159018446846
  N           1.77747338977119     -1.59766640754163     -2.77322068762981
  Br          1.80389768443760      7.41277736787558     -0.75111175920143
  Br          2.94445039756629      5.75263111813451      1.71727356385238
  Br          4.13684013760935      5.31855983603553     -1.17430007244264
