28
Coordinates from ORCA-job NEB_product E -34.879559346040
  C           2.12222616143973      1.93348385039243     -0.38856789349307
  C           0.81034549393290      2.02715606393797     -1.15760971099571
  C           1.87952917582094      0.93864258066709      0.76276303818453
  H           2.90903289401998      1.54834656243833     -1.04223516364861
  C           0.76801498941811      1.26704978089970     -2.46493798686055
  C           2.50229006718420      3.34782975657316      0.09111483873551
  C           3.67595471556927      3.35434714285362      1.02870424110948
  C           3.63596976791208      3.79203821236979      2.27376381970774
  O          -0.13828528870432      2.63532701658080     -0.73414225462601
  N           2.76524247082158      4.15994335441469     -1.09684967691769
  H           1.62479114215896      3.77427147846551      0.58827404816520
  H           4.61250624372551      3.02772935214510      0.58983129445214
  H           2.71707326286222      4.13340557266543      2.72137196215794
  H           4.51137617001221      3.82014796388074      2.90141012849487
  C           3.14114017118760      0.21403470343952      1.21467105558820
  H           1.15131205547926      0.19315806511524      0.43045627892435
  H           1.43548068691569      1.47446175182432      1.60247462117074
  H           3.59200700983157     -0.32583883734581      0.38427935529221
  H           2.89675661020417     -0.50387281827043      1.99428960994511
  H           3.86978365040180      0.91453414663023      1.61185359504305
  C           1.45158865235593      2.09078067244823     -3.55739234848779
  H          -0.27422217900934      1.09552579158028     -2.73860256285742
  H           1.27356803467669      0.30633070796083     -2.35116906194381
  H           0.96372085313010      3.05665880905936     -3.65442826590849
  H           1.39367480320515      1.56922151716191     -4.50994100206107
  H           2.49652394640516      2.26367561743744     -3.31561440748693
  H           3.65119953228282      3.88854113899825     -1.51369696649822
  H           2.83319890676003      5.13897004567629     -0.84347058518566
