23
Coordinates from ORCA-job NEB E -58.080822497540
  C           0.12938714887226     -0.33846881506637      0.91470904962735
  C          -1.21157462180203     -0.38668691753868      0.45730063470358
  C           0.37857098718529      0.44729692330980      2.18482496968422
  H           0.60531362668919     -1.31544652117231      1.00788439073377
  C          -1.77886955264496     -1.70449796463327     -0.07134771892448
  C           1.02418411994614      0.51401102458940     -0.56590487591684
  C           0.04351460214519      1.01516240834908     -1.43846237900865
  C          -1.01918186008129      1.75616866140348     -0.85030802862229
  O          -1.80608030714124      0.68578424168458      0.05798545806357
  C           2.01582054337205     -0.44844849192254     -1.17142154862587
  H           1.52627349328891      1.26333758896664      0.04523296017029
  H          -0.19781410258039      0.44103674186736     -2.32518724033168
  H          -1.80728198633866      2.08022859140231     -1.51988063666064
  H          -0.73994059435791      2.52995975753420     -0.13993101036402
  Br          0.04571389379660     -0.82669601832380      3.67376247404863
  Br          2.21086849423465      1.11210831343281      2.45558304764306
  Br         -0.79721356154273      1.96049891280644      2.49889887809943
  F          -2.90199260173682     -2.02671102882425      0.60738626412111
  F          -2.13217461355195     -1.56377199376371     -1.36864904628024
  H          -1.08118241684205     -2.55210340752636      0.01143008799584
  Br          3.10163828216993      0.53155103113741     -2.49316262213121
  Br          3.25567689443130     -1.23196532384178      0.11589430264638
  Br          1.13634413248854     -1.94234771387046     -2.08663741067132
