15
Coordinates from ORCA-job NEB E -30.802893309220
  C           0.49706175337219      0.18927407653460     -1.24331228599027
  C          -0.74911239731948      0.78091050735348     -1.00430271205649
  C           0.49731733985479     -1.19008396181815     -1.60130714023220
  H           1.26563545212536      0.76725790428464     -1.74744306880839
  I          -0.81022891288129      2.94147205482140     -1.12584215064431
  C           1.12378382041112      0.04195366393935      0.63047285070598
  C           0.07392769135169     -0.64596199367662      1.23018679309948
  C          -1.19127071273599     -0.02004718895757      1.28079067771345
  O          -1.64775436193398      0.21874010854126     -0.32575504173313
  F           2.30396406912011     -0.57767097168247      0.50126312932937
  H           1.27589468613320      1.10698433576433      0.79644672161677
  H           0.13465145213433     -1.72422575095411      1.25079196404242
  H          -1.22511256406152      1.01705991715626      1.60297967625004
  H          -2.01850989375462     -0.61088062364707      1.64945689511750
  N           0.46975257818408     -2.29478207765934     -1.89442630841023
