15
Coordinates from ORCA-job NEB_product E -30.841185652490
  C           2.66816506739362      0.36434533404439      1.22450111498040
  C           1.55241976795575      1.36732372130004      1.10213362689454
  C           2.34789605183702     -0.80564396979508      0.43027898986726
  H           3.59160067635310      0.80026119106788      0.81790057479143
  I           1.29474890576848      2.06921574953223     -0.92502458710766
  C           2.91207875057427     -0.01841957776939      2.70980237908084
  C           1.91870846231423     -1.02311815246808      3.21159576718160
  C           0.89500414893933     -0.70888423047882      3.98123773128250
  O           0.86130577717144      1.77395793484738      1.96785755611849
  F           4.18797321721971     -0.53107844566217      2.79109058616071
  H           2.90272311017580      0.89511335826746      3.31869285192369
  H           2.10226986623465     -2.03703215408206      2.88506096883401
  H           0.71311883587896      0.30302691041687      4.30343942726503
  H           0.19038899614837     -1.45355061642250      4.30652285596958
  N           2.08559836603527     -1.73831705279817     -0.17148984324242
