15
Coordinates from ORCA-job NEB_reactant E -30.834516446100
  C           1.99757440524950      0.28108151048284      0.31513675425807
  C           1.54849445982225      1.21829406558059      1.15980735074561
  C           2.07954357622627     -1.09481642773857      0.57689530665977
  H           2.33220232359291      0.57037933318386     -0.67023426240150
  I           1.51470908349757      3.24430204262693      0.56561658791772
  C           3.49847499844008      0.17074557033224      3.49953655453578
  C           2.42231076049154     -0.59241532910763      3.46944612013550
  C           1.06088242619466     -0.10069684652119      3.08391152260389
  O           1.07590063496137      1.14349098663415      2.39966716286609
  F           4.69053322978021     -0.31508875994414      3.85998919698322
  H           3.55153994176307      1.22293651072726      3.25544441368320
  H           2.48799069742137     -1.63601433037850      3.73418677866247
  H           0.46448991229133      0.09423088470961      3.98240387848664
  H           0.54502921898160     -0.85875307793748      2.48348377302648
  N           2.17562433128628     -2.22837613264998      0.73300886183706
