23
Coordinates from ORCA-job NEB E -36.696191493640
  C           0.00968030136107     -0.61259276226505      0.82380094791711
  C          -1.25379701205534     -0.72758546656061      0.23418664047668
  C           0.14322361319460      0.30428162527516      2.01691200960880
  H           0.57053237418331     -1.53354809687470      0.94970408699358
  C          -1.59977779036249     -1.94168466481938     -0.60042319483229
  C           0.91467782947675      0.29934161849868     -0.64198219255334
  C           0.11694455456885      1.43390704737865     -0.79941343038259
  C          -1.24697195698870      1.26857543557801     -1.16780011236242
  O          -1.94249996076460      0.35527378748691     -0.00422217016774
  C           2.35687059051203      0.45267477460667     -0.24354482484764
  H           0.76785567677527     -0.50043729406194     -1.36353475337458
  H           0.39756273499673      2.33727831707549     -0.27662756897579
  H          -1.44136563906705      0.64305013207792     -2.03636242702678
  H          -1.86477752841492      2.15805010664299     -1.15744511233274
  F           1.42210488476425      0.30204421526953      2.51222573236216
  H          -0.49686208036844     -0.06147251061575      2.82940751540925
  H          -0.12015336011814      1.33883806495957      1.78447608142098
  F          -0.84682017851974     -3.03113717494969     -0.25472105464527
  H          -1.41371813069911     -1.74917831602823     -1.66862492770376
  H          -2.65300755646168     -2.20957566244805     -0.46509154134757
  H           2.49011601655192      1.26287422535170      0.46705660664851
  H           2.94630846453937      0.67390615685791     -1.13325415473319
  H           2.74387415289606     -0.46288355843580      0.19527784444864
