23
Coordinates from ORCA-job NEB_product E -40.962076814680
  C           2.40862500195449     -0.39533820552141     -0.96055035066927
  C           1.03481605651713     -0.99173945091244     -1.04220157581820
  C           2.34200717255451      0.95234025839113     -0.22762094751186
  H           3.07590552474655     -1.07575974382878     -0.42186808676028
  C           1.01453944225300     -2.53860820253066     -0.83662685203224
  C           2.92610184639495     -0.28037904525755     -2.42256182675031
  C           2.08752852346694      0.63151256511375     -3.26090850218935
  C           1.23901244418543      0.20899836858725     -4.17909461709412
  O           0.01327606900214     -0.40921950391198     -1.26019769501496
  H           3.95149548566124      0.08865844958086     -2.37685980611544
  H           2.94457424338399     -1.27719664968649     -2.86680570439554
  H           2.20278521983633      1.68974006156638     -3.07279754473353
  H           1.10415690785788     -0.84010859254338     -4.38797979976263
  H           0.64570397350947      0.89002383772315     -4.76361930091123
  C           3.69933616122959      1.63230470257841     -0.10841370680656
  H           1.94822384702263      0.76759025569352      0.77462799685473
  H           1.63540949437032      1.60279187960471     -0.74302248219673
  H           4.42842970506196      0.95853333963684      0.33675981645399
  H           3.61448225461992      2.50986005943891      0.52730754306956
  H           4.06985226638315      1.95491680232512     -1.07755164886159
  F          -0.19519902788966     -3.06593477797798     -0.99919691982910
  F           1.84425844881398     -3.16802125576288     -1.68584077406492
  F           1.42967893906407     -2.85166515230649      0.40342278513957
