22
Coordinates from ORCA-job NEB E -41.195260003240
  C           0.17962419166634      0.89072794671927     -0.47413199972211
  C          -1.10873458890491      0.79890698095820      0.08675141199713
  C           0.33838378619205      0.60652653688627     -1.94367379074657
  H           0.79447212345984      1.71505000992853     -0.12618200583804
  C          -1.36407662847160      1.58811606613690      1.37506672421006
  C           1.04176357249080     -0.63705597035944      0.39440647603124
  C           0.15280414698421     -1.67078374743068      0.01453899646723
  C          -1.13889990477589     -1.71387952759757      0.50873376246575
  O          -1.88331852368952     -0.16889747247253     -0.16934800049917
  N           2.33465373456120     -0.60119217086654     -0.11124903290162
  H           0.96245696764372     -0.26524199167718      1.40990030996051
  H           0.37777137361802     -2.19753824373429     -0.90332787886772
  H          -1.32303349742821     -1.43410297383546      1.53562363864921
  H          -1.82468181105346     -2.44527758175733      0.11209359609284
  H          -0.37327962587603     -0.14953840296545     -2.26220016221037
  H           1.35151370109096      0.28379998796540     -2.16683672997512
  H           0.14315193628045      1.52297408795408     -2.49914650127895
  F          -2.66252063059318      1.76152365308737      1.62571235220523
  F          -0.84527275605655      0.97663248447099      2.47119109429985
  F          -0.80117049275355      2.80927465769115      1.34783305597513
  H           2.58241250649880     -1.34126918441579     -0.74675789393408
  H           3.06598041911652     -0.32875514468590      0.52100257761955
