22
Coordinates from ORCA-job NEB_product E -41.217783729450
  C           2.70150764633284     -0.67611107055262      0.73075457793397
  C           1.29030711286625     -0.54525346961917      1.21220762236274
  C           2.73175511110264     -0.67425272067533     -0.79665815777833
  H           3.31413981105228      0.14161926313008      1.11914925722469
  C           1.14227608075699      0.29937869803144      2.51622160317672
  C           3.29427798998946     -1.99490373485242      1.34683235222575
  C           2.54696079077785     -3.20250520269995      0.85124064587104
  C           1.65946191871394     -3.86373223637220      1.56959656554754
  O           0.31658297592517     -1.02890818599320      0.71093636917148
  N           4.71670238425326     -2.01626327285027      1.06101749321345
  H           3.18568054255408     -1.92344512758406      2.43407007716726
  H           2.79530481559697     -3.52497262186070     -0.15139208546114
  H           1.40206488314967     -3.56138092273343      2.57174222701386
  H           1.14793956328507     -4.72974381516720      1.18682019080570
  H           2.06731584695086     -1.43827642636221     -1.19026097680952
  H           3.74295533893291     -0.84592884381180     -1.15179289176709
  H           2.39877141010130      0.29245772917267     -1.16709620347241
  F          -0.12231564920272      0.39924011489674      2.91799317415717
  F           1.84338123850189     -0.22564922608941      3.53538128740695
  F           1.60670856899562      1.54627743874140      2.33360377849519
  H           4.88979098867967     -2.31061404419140      0.10641111808416
  H           5.19543063068400     -2.65803232255695      1.67992197543081
