22
Coordinates from ORCA-job NEB_reactant E -41.225113414410
  C           1.97839570618056     -0.06238187853394      0.27679735471881
  C           1.50973957910618     -0.54325229691164      1.42756962315079
  C           2.32032965530714     -0.77360406894521     -0.99376686670717
  H           2.11999498844575      1.00791126696462      0.24514603089311
  C           1.26101381110890      0.40487239864293      2.58704601615605
  C           3.83060364265811     -2.78713976279825      1.85241023933221
  C           2.91145021284646     -3.26816727379614      1.01684483178722
  C           1.44854590278511     -2.94069488257938      1.11078370887404
  O           1.16822200073285     -1.77991365853141      1.87353583323128
  N           5.15845717536316     -3.14730878893023      1.86324762622195
  H           3.55076107896985     -2.10049106907644      2.63910701654406
  H           3.17570637327750     -3.97779295959559      0.24557974500015
  H           0.91348250388229     -3.73131962523990      1.65189689246825
  H           1.00521513951730     -2.85744158365604      0.11151384617857
  H           2.81125632848068     -1.72491384061011     -0.80576499743761
  H           2.98582360945588     -0.14969775421235     -1.58502492396543
  H           1.42280083306230     -0.95447204328447     -1.58553273754219
  F           0.03326224890242      0.27215800557138      3.10214674737245
  F           2.12439354080522      0.17955289052651      3.59487757056807
  F           1.39865514701502      1.69895070615130      2.26555635066761
  H           5.48805297920828     -3.63668681258797      1.04551660702288
  H           5.80483754288906     -2.46816696856769      2.22901348546490
