18
Coordinates from ORCA-job NEB_product E -40.787510246210
  C           1.29792076249479     -1.88756621061873     -1.41570841865541
  C           1.22981494846559     -1.40494028966284      0.01886257484011
  O           1.16482397517135     -0.81612181793274     -2.28985760486575
  H           2.27712778704600     -2.35656335337994     -1.59088675100319
  Cl          1.63218997864618     -2.62682251320926      1.19359004012231
  C           0.18285071191207     -2.95993529848340     -1.60091245705998
  C          -1.15500471916973     -2.38813609541052     -1.22202966769873
  C          -1.94437632438085     -2.92997675884572     -0.31444366177716
  O           0.91664135812552     -0.30434951704830      0.33800151205035
  C           0.14449355492950     -3.49685168298594     -3.02518873280123
  H           0.42468067445263     -3.80340741700758     -0.94260839354903
  H          -1.44421915834083     -1.49050432521683     -1.75146079262803
  H          -1.67521868089595     -3.82875442591962      0.21594387920585
  H          -2.89623764445367     -2.49419245154211     -0.06839519514212
  H           0.79122650077049     -0.05496318534808     -1.82138543322543
  Br          1.87617571657903     -4.23064000760439     -3.55641386176160
  Br         -1.14627230633396     -4.97013595971026     -3.09413596274127
  Br         -0.39601713501815     -2.19253869007374     -4.34687107330969
