24
Coordinates from ORCA-job NEB E -57.085019131830
  C           0.54433402676844     -0.15224744475669      0.30282618447808
  C          -0.32512201014742     -1.22961163634477     -0.30290317295339
  O          -0.15779187366418      0.62211197175100      1.24374639789173
  H           1.44666191130307     -0.58708299726305      0.75231514620206
  C           0.01439126364333     -2.64579739681430     -0.18773290487123
  C           0.86574847847397      0.75906000271008     -0.89461679674878
  C          -0.36150531880379      0.73866774871838     -1.73317613368740
  C          -1.67805520112079      0.32257369023325     -1.18137194562446
  O          -1.61607682371531     -0.92135491198774     -0.55152467328216
  C           1.27774613452996      2.19296268457051     -0.50168547120187
  H           1.72840713860007      0.34210410974808     -1.42550906736107
  H          -0.41744670722324      1.50766905315963     -2.49305515123374
  H          -2.42911839930149      0.21894956915412     -1.97007102798011
  H          -2.03119252499979      1.10121199692893     -0.48383604162201
  C          -0.38511327743167     -0.00382045681155      2.48724269145692
  H          -0.78857734252028      0.77238687234047      3.13377039863072
  H           0.54894734696416     -0.38657342630249      2.91007896831163
  H          -1.10483695964922     -0.82295251165179      2.40146998464180
  Cl          1.67973322229672     -2.89053715898066     -0.78366615455101
  Cl          0.01688323391667     -3.26592468706977      1.54940867453637
  Cl         -1.09561798997929     -3.66044836864698     -1.10012986200140
  F           0.25127937403962      2.94444289409990     -0.09543438344392
  F           2.19441283923116      2.20657176171133      0.47236964197712
  F           1.82190945878933      2.83763864150412     -1.54851530156386
