24
Coordinates from ORCA-job NEB_product E -57.143532227490
  C           2.24357034201723      1.37097048922733     -1.25689521842025
  C           1.79978184897500      0.24610078142005     -2.19397510522502
  O           1.78141028321617      1.21434309937857      0.05026269008761
  H           3.34499436690998      1.36883862574198     -1.29306613468605
  C           1.06275192333898     -0.93684779623440     -1.56008613981448
  C           1.73821851825420      2.69124631646608     -1.91197557028840
  C           0.23852639595412      2.77946010739590     -1.84386664117442
  C          -0.53293751923172      2.80717781094395     -2.91259358576076
  O           2.00640215660391      0.28395531462587     -3.37158420908994
  C           2.35427760138291      3.90932552420807     -1.23380109541054
  H           2.07943688536575      2.70274614332228     -2.95248732783081
  H          -0.16914904664431      2.80230634660041     -0.84365740788451
  H          -0.12722397913565      2.77724317428567     -3.91028009834987
  H          -1.60394622394769      2.85918777681620     -2.82890391660358
  C           2.76309321524376      1.29813275551554      1.06683033677030
  H           3.25073849036776      2.27581927210406      1.08435575691486
  H           3.51844463215775      0.51474303598413      0.95180263997370
  H           2.22457048757902      1.14907839890249      1.99948772167729
  Cl          0.68364402826047     -2.14028501757993     -2.80052787583149
  Cl          2.09218007226227     -1.68279413403974     -0.33034552374225
  Cl         -0.44178893902365     -0.34677112315766     -0.83991864912955
  F           1.89293750810699      4.13481326850677     -0.00050557932229
  F           3.69264346195501      3.80690984229403     -1.12291883089265
  F           2.12042349003174      5.02329998727237     -1.93925023596690
