24
Coordinates from ORCA-job NEB_reactant E -57.143492887230
  C           1.24193146164165      0.46120463165306     -0.23074176813553
  C           1.08508211727980     -0.11119982521364     -1.42968560729538
  O           0.68079882701699      1.64057499183678      0.13622430113490
  H           1.83915367098451     -0.03951463066528      0.51937680536305
  C           1.69494089929174     -1.43594019990313     -1.77485615924914
  C           1.81140014300941      3.62032051865925     -2.01049464094758
  C           1.59956355863556      2.46325803412074     -2.61456440176376
  C           0.27337697322151      1.77137465946989     -2.64563251216171
  O           0.40681307804126      0.36902324542840     -2.52192369668364
  C           3.15321437819512      4.27514029022149     -1.95141559159562
  H           1.03691592608541      4.16308341520136     -1.49052869331973
  H           2.40557192963248      1.94029959723344     -3.11372057066208
  H          -0.18870994039593      1.90654107902547     -3.62965683166471
  H          -0.39146582020300      2.17217834769953     -1.87374547071361
  C           1.22630369710695      2.22792331665665      1.30122770610750
  H           0.57412048686477      3.06102163192558      1.55524918392196
  H           2.23841743091086      2.59980580252385      1.11632755093839
  H           1.24719230757788      1.51512328833693      2.13007206041053
  Cl          3.04060037059707     -1.16360567509685     -2.93001494143377
  Cl          2.33519998628614     -2.31212788383558     -0.38889664581935
  Cl          0.48549460245894     -2.46466204438776     -2.57745672482355
  F           3.65747224237130      4.23979757456354     -0.69833527501663
  F           4.06874103333127      3.70347989967639     -2.74088784033501
  F           3.10197064005829      5.57319993486987     -2.29122023625557
