18
Coordinates from ORCA-job NEB_product E -30.704100343420
  C           2.47806574113558      0.04098995813635      1.88133979317351
  C           1.45001499667487      1.16973099002820      2.07893419242470
  C           2.33247727297068     -0.57907322896156      0.58723122328999
  H           3.47515873695240      0.50212432141879      1.92606448074005
  C           1.24129153511519      2.03102326568685      0.87069569720146
  C           2.38766002938800     -1.00409444274297      3.01890686065344
  C           1.27016763282540     -1.97844996786281      2.79736732879730
  C           0.07796929472214     -1.84640964546552      3.34544087574122
  O           0.88908070094588      1.32899977556600      3.12736066583801
  F           3.59312867435347     -1.67345680734030      3.08252647922044
  H           2.27326743052887     -0.47130263270254      3.97142904090512
  H           1.51103716407910     -2.79590849138646      2.13227793838281
  H          -0.15426796257980     -1.02462343726873      4.00252845366395
  H          -0.71331837362135     -2.54751359690740      3.14632082878896
  N           2.20451461114871     -1.07784925256910     -0.43276524829125
  H           2.19120923335779      2.32172853411281      0.42790563432843
  H           0.66442221526567      2.91306701756316      1.13657209297704
  H           0.69112106673742      1.45741764069524      0.12476366216481
