18
Coordinates from ORCA-job NEB_reactant E -30.700218165380
  C           1.68533053423780     -0.01125791407463      0.20768779043247
  C           1.34794507180739      0.79457135962978      1.23245310898770
  C           1.63981662380895     -1.40858033422120      0.14003666943745
  H           2.04589076482420      0.44859115039801     -0.70207350535994
  C           1.47862559949853      2.28416192517603      1.11871931369922
  C           2.33637933506745     -1.64681972411317      4.55968891408306
  C           2.03098357993598     -1.47231831903021      3.28844472851355
  C           0.72180868476137     -0.88643625404095      2.85393713366456
  O           0.86052969676282      0.46717714368886      2.44262607245415
  F           3.51436653279103     -2.15285726963468      4.94251532064234
  H           1.69784623394168     -1.42506919006430      5.40354419435063
  H           2.74290341675211     -1.72957665674200      2.51864483486903
  H           0.02753565988959     -0.84232840257589      3.69703879739528
  H           0.28313885798706     -1.48689114724585      2.05059524042462
  N           1.63591751699418     -2.55208267593783      0.01636418230076
  H           2.28039297747783      2.62813781168858      1.77096545075371
  H           0.55751569469217      2.75586666272432      1.45447752244672
  H           1.69347321876985      2.58711183437512      0.09943423090471
