22
Coordinates from ORCA-job NEB E -45.892959403890
  C           0.10354163240316     -1.14692979224798     -0.37521953106190
  C          -1.27154448466560     -0.88264172299297     -0.62467591012309
  O           0.40582562546748     -1.78002263031428      0.79242852022758
  H           0.75304045826221     -1.47336296871098     -1.17979272818278
  C          -1.70464624641760     -0.56553961823882     -2.05418080419258
  C           0.68418552218642      0.68566613039755     -0.13778714072232
  C          -0.07418363825327      1.01274543177574      1.02015938201270
  C          -1.42580380362982      1.23239748683591      0.91755489197730
  O          -2.00383729090346     -0.53000170396078      0.33745409928455
  O           2.03635772586497      0.61227595762629     -0.17463640548784
  H           0.35463766592258      1.12214374601092     -1.07747714086844
  H           0.34063580475411      0.75797466002120      1.98526678122451
  H          -1.84087152361050      1.68534708533293      0.03195478705351
  H          -2.01756472706571      1.33795035806109      1.81133418277531
  H          -0.35994098068613     -1.68923647253074      1.38412587856113
  F          -2.92530671524024     -1.03273202758958     -2.32310820582624
  F          -1.74011339981526      0.76216206090653     -2.30619732720350
  F          -0.87052675252190     -1.09126844783522     -2.96500841814926
  C           2.73831663665054      0.30319981754569      1.01767792358981
  H           3.78035156910385      0.20472470311889      0.72058673995519
  H           2.39317814919825     -0.63683664321652      1.45140711746931
  H           2.64426877299592      1.11198459000512      1.74813330768706
