22
Coordinates from ORCA-job NEB_product E -45.908722745010
  C           3.19090449552283      1.01353232935520     -0.35970170582597
  C           1.76364342075895      0.81187161460577     -0.75805639265399
  O           3.50577921281150      0.19723849011046      0.72533535490872
  H           3.86951621422868      0.77716049604831     -1.18883289858274
  C           1.31709556649112      1.42972398783567     -2.10641735622494
  C           3.40309467806402      2.56267272791819     -0.04167394439333
  C           2.75362905488220      2.86937862666442      1.27783751264260
  C           1.65587354655240      3.59303369507442      1.38713702770593
  O           0.96203854065459      0.25060070096318     -0.05641990493069
  O           4.75118546598858      2.90658697500986     -0.15400092719855
  H           2.92549014313019      3.14210516190436     -0.83845930457801
  H           3.22812548991982      2.43408727718178      2.14496726211549
  H           1.16916960854321      4.02463568661490      0.52792401921401
  H           1.20005307523989      3.78384893018664      2.34325782205945
  H           2.67634082165806     -0.09257587791501      1.13813775715148
  F           0.41435136801914      0.66559301975380     -2.71720179722167
  F           0.75967276106668      2.63645835391935     -1.91759188047956
  F           2.33617133302576      1.60197524574947     -2.95771336809471
  C           5.63804931955530      2.41371266706204      0.83479322122954
  H           6.63639865155807      2.60771746791135      0.44737985000828
  H           5.50875768312495      1.34177900179430      0.99405209688709
  H           5.51265954920403      2.94606342225152      1.78224755626157
