22
Coordinates from ORCA-job NEB_reactant E -45.920903262620
  C           1.70894964935642      0.06135678204896     -0.07240899066587
  C           1.45192413350238      1.13061435164817     -0.83279330922611
  O           1.87516036312780      0.08880931540859      1.28277594180162
  H           1.79930958712482     -0.89987316951004     -0.55694408166358
  C           1.30791904006999      0.94599631174273     -2.32455079484412
  C           3.94538545813763      4.04868478648950      0.58789655152808
  C           3.24014061908657      2.94521656478797      0.81142819412845
  C           1.74550108005435      2.92972583159325      0.73453477378318
  O           1.27863383972524      2.44226924450193     -0.52768968977229
  O           5.28308639867292      4.20969236207035      0.59847688101722
  H           3.46223232062151      4.99438601474696      0.37961683331851
  H           3.70937342189090      1.99539634298259      1.01138227788187
  H           1.34321907394868      3.94334908366502      0.77845065865255
  H           1.32300198919203      2.32591532517750      1.54186813505649
  H           2.08984153633354     -0.79290937808008      1.60279398785264
  F           0.24297970556659      1.58048490665562     -2.81970327218194
  F           2.37779713097728      1.41504513145306     -2.99105637050459
  F           1.18657913048140     -0.34275027001781     -2.68617200488878
  C           6.07773776111452      3.06733865918334      0.82019253269763
  H           7.11135548664738      3.40400734866376      0.76706708193467
  H           5.89946979964352      2.30833249292679      0.05239906594276
  H           5.88280247472453      2.63631196186185      1.80713559815161
