26
Coordinates from ORCA-job NEB_product E -42.163097615770
  C           2.46403922349736      1.56073071282923     -0.08701545152180
  C           1.38437424208497      1.25047676283222     -1.07838910357518
  C           2.31177430761175      0.57344747813223      1.08219078468152
  H           3.45351144707082      1.42836290096800     -0.53580680721499
  C           1.84722256886768      1.04016147000078     -2.52354161295881
  C           2.28065669089402      3.07503958769675      0.25662459729130
  C           1.28552072074237      3.27576358156764      1.35902643760713
  C           0.04365150292689      3.67747538034249      1.16478206403146
  O           0.21755960761605      1.14249268768016     -0.83096265997724
  C           3.62122484212203      3.73183279650847      0.58214569078501
  H           1.88643203374669      3.56878841377301     -0.64099704111936
  H           1.64673223152880      3.08129969252565      2.35930643259624
  H          -0.34304240021327      3.88253555419349      0.18006468850635
  H          -0.64466952105643      3.81146649845478      1.98140168946999
  C           3.45087658567235      0.62812135754513      2.09014162786319
  H           2.27999374374523     -0.43427276795181      0.65682219130715
  H           1.35485183246191      0.75150884069804      1.57424450987016
  H           4.41246576123520      0.53972206021979      1.58916427168596
  H           3.35447939787181     -0.19928998939258      2.78896471510684
  H           3.43656438011301      1.55161140026247      2.66114714450362
  Br          2.83450630675743     -0.64891495256379     -2.52198999365490
  Br          0.31959364349506      0.89613088726100     -3.70127749652007
  Br          3.02002866149480      2.45046188941662     -3.15027644313850
  H           4.30011001472824      3.65084724396754     -0.26404590016950
  H           4.08791983507935      3.27530942428489      1.44899241271797
  H           3.46252233990589      4.78739108874781      0.79018325182645
