27
Coordinates from ORCA-job NEB E -35.918512199690
  C          -0.15121482780060      0.68631124853318      0.67792813426363
  C          -0.92522585930760      0.23497592610879      1.76438514393491
  C          -0.71723176350929      1.75976858935366     -0.23986267877923
  H           0.87889657471166      0.90417109969171      0.95153491248124
  C          -0.25729449972348     -0.11834040080766      2.95539913534397
  C          -0.08309805960153     -0.90700936958320     -0.40686336259131
  C          -1.17280797540761     -1.70207392060697     -0.02878024466441
  C          -2.41054441012753     -1.00624642742386      0.28933015790854
  O          -2.13757800423368     -0.28786677852878      1.57470648165113
  C           1.29440573175100     -1.53104649063945     -0.29315791968403
  H          -0.22179949808517     -0.33668317687393     -1.31866833795025
  H          -0.96280416783546     -2.56282911243261      0.59758220341375
  H          -3.24853814042625     -1.65048470601296      0.54666217234217
  H          -2.71671703511536     -0.26404601203485     -0.45236188006643
  C           0.31029847743971      2.31770107599966     -1.21700879447436
  H          -1.05394761470620      2.57885538847373      0.40383059783348
  H          -1.59207361288745      1.40866848630254     -0.78872655432959
  H           1.17134245667423      2.71167670980397     -0.68162125264017
  H          -0.13154955516715      3.12768040351488     -1.79288354923926
  H           0.65801014189392      1.55945493865830     -1.91428002002384
  N           0.29702105408006     -0.31219557171877      3.94533909682476
  C           2.38410312180482     -0.75181532044178     -1.01842987737075
  H           1.24621384976445     -2.53987216132490     -0.71198682050414
  H           1.55539047248338     -1.63445578477107      0.76319267281210
  H           2.15217043706534     -0.66495691893689     -2.07825059221183
  H           3.33715499674274     -1.26627500466536     -0.92193775609194
  H           2.49741770952304      0.24693329036262     -0.60507106818814
