27
Coordinates from ORCA-job NEB_product E -35.961740093940
  C           2.70912638079501     -1.05159590499164     -0.76894366440562
  C           2.60068389668413     -1.31206604145497      0.71890655080474
  C           1.56204349205689     -0.11633269568945     -1.18585352397005
  H           3.66616630489154     -0.56295883066373     -0.97959194765686
  C           3.87976576414488     -1.18469583381834      1.40144607194876
  C           2.67342982277649     -2.40058823021639     -1.53406287516665
  C           1.33069845530889     -3.05788001449793     -1.40887812983142
  C           0.59313611706769     -3.42922080884769     -2.43826626383361
  O           1.58575900103820     -1.58464439324462      1.30819019165842
  C           3.76233594102430     -3.37592366876735     -1.05163895469528
  H           2.86605140056712     -2.18152564971673     -2.58914825480760
  H           0.98982930471224     -3.24112526547515     -0.39895704480290
  H          -0.35688763364172     -3.91911133522658     -2.31153691139816
  H           0.91036081433342     -3.26501582728736     -3.45599237228918
  C           1.65733512387344      0.32707880106177     -2.63916782866430
  H           1.59119095732249      0.76758900439022     -0.54257395441636
  H           0.61131345663427     -0.62298049685574     -1.01335870951214
  H           2.63452114308152      0.75832147088786     -2.84760552499453
  H           0.90109504623169      1.08095633417714     -2.84308659441470
  H           1.49146767824907     -0.50699401113655     -3.31484179952204
  N           4.90307404243971     -1.06751712544367      1.90209472334823
  C           5.18076241549347     -2.90135345913131     -1.34703138160232
  H           3.59769595438549     -4.32765855820846     -1.56346446328036
  H           3.65072897430098     -3.56034112715520      0.02000009939407
  H           5.28834399389862     -2.65756021797269     -2.40210288964045
  H           5.89075141049690     -3.68826332540259     -1.10498906118530
  H           5.44322074183326     -2.02639278931284     -0.75784548706438
