27
Coordinates from ORCA-job NEB_reactant E -35.956212344330
  C           1.90180284425962     -0.23142571943055      0.18512581996311
  C           1.30273655045089     -1.16345503834948      0.94297802784699
  C           2.13778379289521     -0.15744334163930     -1.29167535768410
  H           2.26663531345312      0.62616934364093      0.73652383972750
  C           1.25033379718369     -0.88180107149244      2.34134347160190
  C           2.56143329703901     -3.62510882182311     -2.16761392943726
  C           2.08381535608006     -3.50142792889321     -0.94044544538680
  C           0.73256818215481     -2.93776291966730     -0.60620719259571
  O           0.68469149871246     -2.34846047874716      0.67619468808186
  C           3.90663628505251     -4.18077528623418     -2.50530742508730
  H           1.97020107557057     -3.29436399857036     -3.01374626027852
  H           2.65845578009009     -3.83044202887207     -0.08484662595792
  H           0.00593818707086     -3.75692169857863     -0.53264104673600
  H           0.38596996084383     -2.24121088857283     -1.37846341671548
  C           3.27865347104207      0.80389573325514     -1.61342456300815
  H           1.22640832831270      0.19992152219650     -1.78509722414619
  H           2.37694373111471     -1.13965185694620     -1.70018403218654
  H           3.05104035140188      1.80642625434049     -1.25810854605056
  H           3.44179783437813      0.84882110348362     -2.68779094538210
  H           4.19980147444860      0.47217442835437     -1.13928645669084
  N           1.23174510359008     -0.63357537059098      3.45965686019120
  C           4.77106838717000     -3.12691719717844     -3.19877092187175
  H           3.78263872887406     -5.03618386567758     -3.17502975143433
  H           4.40391764327017     -4.52732132641036     -1.59800552654552
  H           4.29045820691797     -2.77757101543304     -4.11012006888966
  H           5.74098373758096     -3.54342434311450     -3.45863810455683
  H           4.92644108104194     -2.27356418904932     -2.54231986677098
