18
Coordinates from ORCA-job NEB E -36.680923053320
  C           0.67264401396607      0.81332148114638      0.55750155610384
  C          -0.60825825162089      0.27574798622725      0.76219465756899
  O           0.76773933812971      2.04751941579754     -0.07610028547941
  H           1.39140964213939      0.68486690394472      1.36925562274278
  C          -0.82320210936579     -0.74704828182283      1.80808825043345
  C           1.34119407712296     -0.24518102959072     -0.91629737773391
  C           0.22478491463680     -0.78761384243841     -1.53756275861249
  C          -0.91144629502275      0.11499815464405     -1.65652514069569
  O          -1.45279596010998      0.18795109837463     -0.25698994706508
  H           2.09394000627813     -0.92797259594044     -0.54283382749882
  H           1.74470513708341      0.66319752553477     -1.34578395120719
  H           0.00458092403323     -1.84149557373880     -1.43156410152160
  H          -1.76343567855565     -0.25306046874714     -2.22190473725551
  H          -0.63711376726797      1.13102367078960     -1.94635991283117
  H           0.64338241884083      2.75268076592511      0.57003986190767
  Br         -0.24345772448746     -0.13596041266369      3.54754226279945
  Br         -2.67904182105750     -1.25539125505346      1.88602801300516
  Br          0.23437113525746     -2.47758354238856      1.43127181533953
