20
Coordinates from ORCA-job NEB E -41.982892270840
  C           0.79143638405637     -0.95791153681891     -0.09212642082406
  C          -0.31236516692914     -1.27154227333799      0.69515182354903
  H           1.71940335276290     -0.73253568036053      0.41226397920749
  H           0.90945291326106     -1.49442129038341     -1.02443117500618
  C          -1.50345784838003     -1.97685137127730      0.07015522360276
  C           0.34739976187627      0.85922899491204     -0.56453627194227
  C           0.14079896285341      1.45002045591634      0.67883756536700
  C          -0.91297040151554      0.92650368406800      1.49916266660873
  O          -0.54590302770807     -0.58503386366851      1.78955829408585
  C           1.51926706327351      1.32893952575773     -1.39472044563869
  H          -0.51218983013765      0.63481101942117     -1.18697885734272
  H           0.98618726486178      1.90892058708604      1.17181956173095
  H          -1.88526884788804      0.85111682065172      1.01593761654743
  H          -0.98504198537255      1.34568759486042      2.49619885392348
  F          -2.21259287154278     -1.12216125721749     -0.73532535744418
  F          -1.11267500292253     -2.99099388817589     -0.73107123672361
  H          -2.20070206691938     -2.36832281725069      0.82478540265138
  F           2.67132894218562      1.32964846993028     -0.68278049006587
  F           1.72743926982966      0.51522273464431     -2.45557611818590
  H           1.37045313435512      2.34967409124267     -1.78632461410063
