20
Coordinates from ORCA-job NEB_reactant E -42.008081163130
  C           1.65811743128413      0.06107081211020     -0.14157627922782
  C           1.54419106046228      0.37818895357798     -1.42592008497979
  H           2.18242360562394      0.67370807344867      0.56714737345268
  H           1.21833436567447     -0.84111071600413      0.23748754293340
  C           0.78979009727625     -0.51018794811250     -2.39437993922069
  C           3.03803917035519      3.54433218131933     -3.52557966763245
  C           3.21185608804713      3.52187028534650     -2.21549123445508
  C           2.75042186330086      2.41517410295113     -1.32295804931355
  O           2.02859667689186      1.46226253331215     -2.06977564077784
  C           3.50820747940869      4.66342519008825     -4.40189365480383
  H           2.55458261565815      2.73517963353801     -4.05005202962988
  H           3.70942502319034      4.33413662097587     -1.70417578354563
  H           2.11610057708870      2.82920538124601     -0.52471448086670
  H           3.62528842614034      1.94347351119119     -0.84996661790483
  F          -0.26121191239553      0.15115805012201     -2.93735797803409
  F           1.57839134000942     -0.88199320996447     -3.42968736256286
  H           0.40497842250500     -1.42211770257482     -1.91442908240196
  F           4.11205824461606      5.65202769138955     -3.69821674442500
  F           4.43254861128547      4.22040336406174     -5.29548445014107
  H           2.68926081357724      5.12069319197731     -4.98347583646299
