20
Coordinates from ORCA-job NEB_reactant E -33.013286924670
  C           1.09630942425155     -0.17815180095325      0.05577836789661
  C           1.22202602444203     -0.47935964720383      1.35111006383192
  O           0.97553209562427     -1.15112864718873     -0.90762575220780
  H           1.03356825588873      0.85109507720500     -0.27553532819950
  N           1.15225077208966      0.47805042685334      2.37580816407513
  C          -0.53750979555605     -3.83249021215226      0.17611547104796
  C          -0.64815418721880     -2.72119121102095      0.87804662074235
  C           0.17412268586343     -2.46518258966002      2.10740805249185
  O           1.37905646543075     -1.76988286745977      1.80334652431740
  Br         -1.49962048597768     -4.12184622838605     -1.41861927606551
  H           0.09972263850885     -4.66014154218640      0.44272901113157
  H          -1.28913236086508     -1.91777991739935      0.54650143323077
  H           0.50765106050574     -3.40447112710323      2.55552758823047
  H          -0.41260112882127     -1.89320495703288      2.83841192716924
  C           1.30617248896084     -0.73896807431558     -2.20930901859821
  H           1.05185656640033     -1.56887384977205     -2.86636245109879
  H           2.37543161964984     -0.51656052368004     -2.30044516738371
  H           0.73192119394417      0.14694502544924     -2.50474452412274
  H           1.70146246164246      0.20575611280765      3.18074766984552
  H           1.37243420523622      1.41478655319916      2.07051062366548
