20
Coordinates from ORCA-job NEB_product E -41.486864635720
  C           1.69488361705110     -0.84587744038041      2.14916054324637
  C           2.58316289560814     -2.06436674130676      2.12476208550294
  C           1.40376952389113     -0.26180955654111      0.76906012799046
  H           2.24733279692279     -0.07854339892293      2.70522581481703
  F           2.44350408023704     -2.81692220055042      1.01131758964785
  C           0.40714200793069     -1.17140570374772      2.96680438349201
  C          -0.18725635987007     -2.50296104192905      2.60689796121387
  C          -1.43176737989676     -2.66614107904757      2.20196609268438
  O           3.32456069058663     -2.41685674065128      2.97169272246228
  C           0.73922523509750     -1.14951058844610      4.46065629344331
  H          -0.32152396641343     -0.38393505820924      2.75394752056086
  H           0.45795292185622     -3.35892044574134      2.75432255633099
  H          -2.09474559414119     -1.82901223198370      2.05609643719307
  H          -1.83742351720729     -3.63961233100537      1.98953595073527
  Cl          0.34402222076968     -1.26847481938778     -0.22862716141580
  Cl          0.62703212625057      1.33073387869245      0.96702122039797
  Cl          2.94623456160255     -0.00561742160496     -0.10204350340942
  H           1.06564364604250     -0.15859992496646      4.76657860272940
  H           1.52560328298900     -1.86354965515970      4.69228370797313
  H          -0.14615278930678     -1.41311749911056      5.03344105440400
