20
Coordinates from ORCA-job NEB_reactant E -41.470144683170
  C           1.44704559742260      0.04528747994175      0.26139485606857
  C           0.73456455689546     -0.89798778625937      0.88660742642865
  C           2.48708521789764     -0.24366580811178     -0.74897726439492
  H           1.24496898232102      1.07412161207556      0.50021147718617
  F           0.94214077492202     -2.19840748790657      0.63767830479391
  C           0.02769703923984     -2.01836211987090      4.88834588822115
  C           0.21072610547993     -2.16795253614936      3.58688688893990
  C          -0.76207608718747     -1.69909480680690      2.54840595482839
  O          -0.22109566599383     -0.62860277712520      1.75379104171192
  C           0.98175288738048     -2.47964816507739      5.93406630841198
  H          -0.87363398776136     -1.54306570971667      5.25445547984189
  H           1.10861009646730     -2.63754678517488      3.20816450725507
  H          -1.64982778372662     -1.26272939248008      3.00841152376730
  H          -1.05791839411486     -2.52749590644013      1.89359633250059
  Cl          1.81826067868325     -1.12300593874266     -2.16206620697840
  Cl          3.20253308309098      1.26556122264815     -1.33462887792061
  Cl          3.80569686059045     -1.25176754420858     -0.07130206685803
  H           1.85987882024881     -2.94037788306228      5.48995605045946
  H           0.49656597280336     -3.20079376127141      6.59085941129639
  H           1.29582524534100     -1.63646590626129      6.54814296444061
