19
Coordinates from ORCA-job NEB_product E -34.083851334550
  C           1.58680932399631     -0.96913867140600     -0.63156879825570
  C           2.60666567896239     -1.16864836832814      0.49442418997044
  O           2.19792431600128     -0.19995455075127     -1.61330035542019
  H           0.70968895622972     -0.44898308153453     -0.19697477737723
  C           1.98997777145638     -1.82485026685648      1.64188693840178
  C           1.09333675454131     -2.37421374358012     -1.10081268717319
  C          -0.32494612711490     -2.36916872900062     -1.56379236418601
  C          -1.30081519631009     -2.92362359777888     -0.86826389622306
  O           3.75521518431947     -0.83906883806217      0.46067091910998
  Br          2.27999922714713     -2.99873645558709     -2.53493482473667
  H           1.20873247714070     -3.09446421206082     -0.28559849173292
  H          -0.52148197863789     -1.87990434895060     -2.50690489584566
  H          -1.11990983371913     -3.42133899132364      0.07056903720781
  H          -2.31997476705305     -2.89905075841524     -1.21157320766272
  C           1.34214499410523      0.42631147684967     -2.53989594552502
  H           1.95875970176468      1.15343699661289     -3.06420663850655
  H           0.51680415049705      0.94059632033007     -2.03402427493924
  H           0.93876800327930     -0.28439870633745     -3.26768120411644
  N           1.47530136339409     -2.33290147381959      2.52878127701061
