19
Coordinates from ORCA-job NEB_reactant E -34.099415007630
  C           1.17785470124223     -0.23993765058297     -0.09206507438953
  C           1.13647510714563     -1.33306189261080      0.69329764439180
  O           0.60410456167291     -0.12252091969240     -1.31932830514627
  H           1.71961676235790      0.62299796639572      0.27708875540335
  C           1.79519529932042     -1.22624152686406      1.94598860610676
  C           1.27769472728832     -4.35741497019722     -2.30633363968026
  C           1.10806434404001     -3.17126517487256     -1.75342928315897
  C           0.02095454060309     -2.88067501587353     -0.76083861861068
  O           0.53426053154765     -2.54714126622684      0.51375550715292
  Br          2.64018833881612     -4.70595463782094     -3.56795646637433
  H           0.65428595639349     -5.21442575660534     -2.10649232531377
  H           1.76980752762753     -2.35035705624797     -1.98895713631273
  H          -0.58625403422149     -3.77234789442686     -0.58408365423499
  H          -0.61580593806551     -2.07489781224830     -1.14396530611912
  C           0.91419713249144      1.06002005339897     -2.02218068147407
  H           0.35795130936282      1.01216398731800     -2.95628775705666
  H           1.98519629288818      1.12349217911839     -2.23817949011447
  H           0.60758291576264      1.94599541968467     -1.45833358866083
  N           2.32982992372662     -1.12312803164595      2.95450081359184
