15
Coordinates from ORCA-job NEB_product E -30.837425494800
  C           1.59713879459539      0.85597215039262      1.30319847557717
  C           2.55933528930895      1.93756152941952      0.86099105346483
  F           2.02929038716121     -0.38823903647859      0.96307185857868
  H           0.63566201098386      1.01537196014312      0.79206548931797
  I           4.36069109917173      1.23044991422552     -0.04056277570624
  C           1.39065850004436      0.96201608241754      2.83480135367360
  C           0.42579078697019     -0.09101816764798      3.31812826875786
  C          -0.70072379305660      0.19361535179016      3.94087420884245
  O           2.35969251053904      3.09666083504729      1.00741037282175
  C           2.66501698275222      0.79568639040630      3.50710376149210
  H           1.01056276242510      1.96701878788550      3.05418522431074
  H           0.72678990192177     -1.10970326949023      3.11879468754294
  H          -1.00295841226434      1.20766797880179      4.14753103793912
  H          -1.36680753300323     -0.58183531741342      4.27603986786102
  N           3.66466071245034      0.65377481050087      4.03906711552601
