20
Coordinates from ORCA-job NEB E -44.233861809760
  C           0.74468022830214     -0.94702566122316     -0.07678190331115
  C          -0.55663933455605     -1.33793421667238      0.29718203444670
  F           1.69199346648263     -0.98558512757126      0.87869394900745
  H           1.15793722497118     -1.32229416146779     -1.01251335298546
  C          -1.50121029928232     -1.89627894431481     -0.69645909408329
  C           0.57376324632951      0.92709529869974     -0.28891899063673
  C           0.07346091694517      1.26809812998854      0.96884459810949
  C          -1.19358856017608      0.71888838450298      1.38630264915007
  O          -1.08141823833700     -0.82075551447636      1.38927990642228
  C           1.92368116907699      1.46669491480300     -0.70966849342311
  H          -0.11582066281862      0.90972423810900     -1.12925512265216
  H           0.77086202393109      1.59382981663968      1.72682733006809
  H          -2.01822914476477      0.91150046243835      0.69709386216085
  H          -1.47374753799998      0.94315970982688      2.41074536854363
  Br         -0.71367215429815     -3.28051541114005     -1.79491698047147
  Br         -3.06453351718018     -2.58318680460110      0.20307800236507
  Br         -2.19669610668912     -0.46637639090148     -2.01812992576771
  F           2.74388313890304      1.68342017129238      0.36004043421040
  H           1.78711435605488      2.43520815863446     -1.20664262227364
  H           2.44817978510563      0.78233294743339     -1.38480164887931
