20
Coordinates from ORCA-job NEB_reactant E -44.263222506450
  C           1.61173714639689      0.09018890522711     -0.05788014711318
  C           1.63429176723401      0.87462010089114     -1.13557970380000
  F           2.12062893210099      0.44911057747774      1.13270231012765
  H           1.18833981629847     -0.90008357830166     -0.03168200074860
  C           1.09321333130079      0.42687149601601     -2.45600933296296
  C           2.99131369603763      4.65897304490038     -1.86107006635364
  C           3.23150491727469      4.13120557384251     -0.67372800842696
  C           2.78140470176609      2.77714717575646     -0.22547444824344
  O           2.13525979222802      2.11529177516041     -1.30296257120509
  C           3.44877153257125      6.01601171290177     -2.28435620882394
  H           2.43364524390714      4.12805538592244     -2.61748733426076
  H           3.78858248799601      4.67786026193459      0.07328306769508
  H           2.09032822305602      2.88177881389251      0.62156509837206
  H           3.64753355905418      2.19131799104046      0.10952949883123
  Br          0.03912318021561     -1.18383424023408     -2.41725795751786
  Br         -0.00445816600169      1.85485691451709     -3.19768591645834
  Br          2.60991058351331      0.14654750756064     -3.67470965686068
  F           4.14272352559074      6.66152062735304     -1.29310398157851
  H           2.59239116476065      6.65245550448414     -2.53985697718584
  H           4.11955456469919      5.94900444965730     -3.15003566348621
