20
Coordinates from ORCA-job NEB_product E -29.187583329700
  C           3.61804822621671      0.60587610848849      1.32742918143534
  C           2.19568175080450      0.78691217402521      0.92186314873751
  H           4.03609691712572     -0.19813277200817      0.72016127909740
  H           4.17010695926712      1.53022346900237      1.15361175491835
  Cl          1.48253053026070      2.24862874960609      1.63209813180673
  C           3.69980342412330      0.24072961346061      2.82425014055628
  C           2.96018482462443     -1.03991473944506      3.08243952396186
  C           2.10013771305015     -1.20706574587539      4.06848092435451
  O           1.52995290154791      0.09092784919868      0.23366108780088
  C           5.16233135499811      0.15618817672645      3.29673111791086
  H           3.22198185863646      1.04271893822115      3.39636453129180
  H           3.17021902193276     -1.85107738639405      2.39898879185233
  H           1.86484931565344     -0.41189432184435      4.75736179667547
  H           1.59241838845447     -2.14220448443557      4.23021642234419
  C           5.99450255900174     -0.92709861542255      2.62095659549719
  H           5.14832073676647     -0.03098751158807      4.37258433856649
  H           5.63613634499481      1.12718228999691      3.13493734754521
  H           5.55300977297843     -1.90773590993154      2.77533479681592
  H           6.99500996803612     -0.93668886175566      3.04730422423330
  H           6.08847743152664     -0.74818702002555      1.55302486459837
