15
Coordinates from ORCA-job NEB E -30.072647376410
  C          -0.03301769260159      1.18584960006651     -0.67143321846619
  C          -0.59590711637872      1.45402028416019      0.62758428823511
  I          -1.08060347946314     -3.17871455098904     -0.05139685236049
  H           0.98640365608953      1.55415809287017     -0.74450811600183
  C          -1.11063246480477      2.73666626076428      0.86473385205083
  C           0.10528500509382     -1.74347320689275     -1.22164139053045
  C           0.02147935833955     -0.40379734627021     -0.46684733786652
  C           0.53948293828381     -0.30641756255870      0.94362836443595
  O          -0.45020383433476      0.52991888413892      1.56953846080036
  Br          1.90748419411226     -2.60833356076386     -1.45472115662446
  H          -0.26925452876155     -1.83379225176402     -2.24080076533674
  H          -1.10495637464872     -0.47854205205849     -0.39722339412975
  H           1.40557796378826      0.40907677624445      0.92514389038801
  H           0.90047576075729     -1.18387465666944      1.48026300486209
  N          -1.22161338547128      3.86725528972199      0.83768037054408
