21
Coordinates from ORCA-job NEB E -45.446289280800
  C           0.03978304389562     -0.27577705768201      1.10233710855186
  C          -0.01410820931558     -1.11832596237886     -0.00346294187838
  O          -0.79363307695956      0.72349063099805      1.29325731759003
  H           0.97416063058592     -0.28521321429748      1.71009246680996
  C           0.94205607321536     -2.15659450903350     -0.08176772946794
  C           0.80746095394909      1.08220009910886     -1.88946171656589
  C          -0.43661896598748      0.86256135039189     -2.25302203556316
  C          -1.33926917783607     -0.28759614601455     -1.94317399194098
  O          -1.04881433728561     -1.21362578555901     -0.87041359910328
  F           1.44906424173981      2.16211779569588     -2.34799344002818
  H           1.43811837688569      0.47214077544001     -1.27401801672615
  H          -0.87255061300843      1.57135112980181     -2.94543063581858
  H          -1.42426186986722     -0.91808107017990     -2.84505484111538
  H          -2.36053630744818      0.09263490707910     -1.75662544921768
  C          -0.74507904694627      1.23050670741798      2.62515489267531
  H          -1.40315592047556      0.59455043582689      3.21785630922479
  H          -1.09084341390285      2.26308454371785      2.61412585957216
  H           0.28404453266807      1.20477322638112      3.00025039624772
  Cl          1.00165452878700     -3.09759304719081     -1.50457018218938
  Cl          1.99355661257409     -2.62345629233363      1.13410018732376
  Cl          2.59897194473216     -0.28314851718967      3.01782004161938
