21
Coordinates from ORCA-job NEB_reactant E -45.519055203000
  C           1.12223633187472     -0.02502504267358     -0.16949882302654
  C           0.89449756029309     -0.99375679581504     -1.06447487093454
  O           0.36346468094321      1.09486222800198     -0.05133185835594
  H           1.95870973818917     -0.11468625822689      0.50953272094031
  C           1.76136507033435     -2.21351300546375     -1.16130281495765
  C           0.59173051662829      0.80444739805280     -4.75332975993736
  C           0.58871005552956      0.76767652358908     -3.43529473821875
  C          -0.51384765214630      0.14291379600836     -2.63784194231935
  O          -0.09703098776980     -1.06227185564538     -2.00608280443468
  F           1.59312155089820      1.36766697919770     -5.44249957687337
  H          -0.18388796395584      0.42467725597439     -5.40288167827661
  H           1.42576473698977      1.17016871758965     -2.88401594944960
  H          -1.33299747284335     -0.17049035598947     -3.28798229441150
  H          -0.88273864145646      0.85285786790756     -1.88999727839513
  C           0.84399801765536      2.04965099235026      0.87168050138816
  H           0.11622462302987      2.85850738118289      0.87651115387912
  H           1.82018567062735      2.43883117108245      0.56715936600723
  H           0.92255127104811      1.62270127666989      1.87553035836402
  Cl          2.71273805639903     -2.12271207133419     -2.68107253451883
  Cl          2.88803854898335     -2.40367711026032      0.17755026587189
  Cl          0.74096628874831     -3.66842909219839     -1.24125744234089
