18
Coordinates from ORCA-job NEB_reactant E -26.012341022230
  C           1.50487935922141     -0.12994073065469     -0.18025755641122
  C           1.81987811474894     -0.90781535112860      0.85148649826394
  H           1.70437325432592     -0.39567853456736     -1.19755806291715
  H           1.02819471687183      0.81089269687707      0.00790001179393
  O           1.53365741637039     -0.49792125255773      2.11317900418086
  C           3.64250389492994     -4.60414161801019      0.84789508556677
  C           3.41748997771501     -3.99132307194917     -0.29773442689816
  C           2.76608445874646     -2.65002435609156     -0.44650811511403
  O           2.42300088773627     -2.12568646550897      0.81453465863470
  H           4.11581120653316     -5.56963716924944      0.88912003412038
  H           3.35966724734985     -4.15860324362432      1.78535775072640
  H           3.70111505960484     -4.43761381670429     -1.24136841959653
  H           1.86477153342619     -2.75030873873021     -1.07111100108065
  H           3.45595002030169     -1.96567115311754     -0.96446327431123
  C           1.88454667108569     -1.35856280441437      3.17603321501781
  H           1.56971674980595     -0.84335207221827      4.08154518248258
  H           2.96325510068545     -1.53450322384169      3.20596473733966
  H           1.36780433054102     -2.31890909450869      3.09748467820194
