20
Coordinates from ORCA-job P E -37.734529326190
  C          -1.28658048272556      0.34338888890919     -2.43756683320806
  C          -0.29383105007009     -1.65947110731002     -0.83756156062794
  C          -1.65092277970954     -1.83014235919898     -1.44504736651197
  C          -2.12732062422785     -0.88953412223327     -2.24258237512180
  C          -0.82826231505460      0.84733228550551     -1.05422680348221
  C          -0.10284133055261     -0.24505032701594     -0.24518811559044
  H          -2.19488005145633     -2.73696815549681     -1.23658858519918
  H          -3.08911781587289     -0.94704871376211     -2.72548561802784
  C          -2.01878664202555      1.38128378345376     -3.12212133568110
  H          -0.11953889715798     -2.40527585969627     -0.06386780688168
  H          -0.40239825118269      0.09822580764973     -3.04117359646000
  H           0.45497314435644     -1.81125196624953     -1.62117858098632
  H          -1.71419744689837      1.16969457838847     -0.50490455146803
  H          -0.50257034260656     -0.24702147502572      0.77330996026993
  H          -0.18454656923169      1.71796379513197     -1.18117411064691
  C           1.38586067871235      0.07317728956638     -0.11119413935663
  N          -2.61498073210376      2.19742000442789     -3.65526754321067
  Cl          1.62268496752088      1.61127163788387      0.76349191410109
  Cl          2.22995064330745     -1.19611936647786      0.80760761705333
  Cl          2.16980589697895      0.21941538154973     -1.70112056896355
