23
Coordinates from ORCA-job P E -37.744720877490
  C          -1.31672848041884      0.40017086994142     -2.39218554114353
  C          -0.12874140423531     -1.67954453061332     -1.07746533447251
  C          -1.47848500321722     -1.90115383922133     -1.68130162999059
  C          -2.06096345524237     -0.89890966944437     -2.31804769173939
  C          -0.82099266167974      0.79109111703367     -0.98923067707953
  C          -0.12496762509190     -0.36679844089794     -0.25677970298602
  H          -1.94453557555600     -2.86739660485431     -1.57992391275232
  H          -3.04098996263928     -0.96078241034501     -2.76144558914574
  N          -2.20005460305902      1.47258732847607     -2.89343231044414
  H           0.15430193630150     -2.51634830259022     -0.44101158367190
  H          -0.47078482502836      0.33274056549151     -3.08640825223173
  H           0.61361538013707     -1.59216382129183     -1.87746271070329
  H          -1.68651638299849      1.12514793401096     -0.41426433001667
  H          -0.64724275129484     -0.56500951151429      0.68287156754010
  H          -0.11740307362434      1.62307390275595     -1.07691070801249
  C           1.32649453330594     -0.02087849245532      0.07230433909992
  O          -1.83195278227410      2.08823188164648     -3.86368765101695
  O          -3.23232294468603      1.65926546960168     -2.29549534182222
  O           1.89219917837421      0.92247413869792     -0.41498716538061
  C           2.00845267899460     -0.97132513359025      1.02092576837109
  H           1.32468590462079     -1.34279421922740      1.77822623215916
  H           2.85381300873645     -0.47473107940150      1.49006484649471
  H           2.39086891057528     -1.81800715220855      0.45266737894466
