23
Coordinates from ORCA-job R E -37.660680484180
  C          -1.40401676020500     -0.38358376982533     -2.53351297075794
  C           0.45986969970064     -2.73747594823507     -2.65873497615873
  C          -0.87120438679230     -2.79264031858709     -2.69430488004991
  C          -1.73733764503222     -1.67394592413479     -2.40496315971131
  C           0.12257566974566      2.59547989524701     -0.25483679089676
  C           0.22188547519352      1.54995658270340      0.55776941612788
  H          -1.37141736285145     -3.72800442770072     -2.91080761904027
  H          -2.74237436723564     -1.90152070189605     -2.06674989168940
  N          -2.30943740139818      0.64667030303907     -2.17089290077837
  H           1.05858157085182     -3.60942958400741     -2.86120339986053
  H          -0.45306492294369     -0.02453601357052     -2.89269296181937
  H           0.98098332135141     -1.83593437225408     -2.38143063022079
  H          -0.26736162314449      3.54454240698290      0.07076464154521
  H          -0.06855575123610      1.60209704160443      1.59672382450142
  H           0.40972777121186      2.51529801196933     -1.28997876886230
  C           0.73980627310151      0.24874599063787      0.09288851446988
  O          -1.94693499866856      1.79192450511791     -2.36080076451736
  O          -3.38162438110424      0.34052134631985     -1.68141668349849
  O           1.11767525586200      0.05146007827930     -1.04237604066002
  C           0.75279977002817     -0.83467989549197      1.14130918081749
  H          -0.25082415045841     -0.97147502478161      1.54196148297151
  H           1.40203443140623     -0.53668876199064      1.96303257804717
  H           1.10733451261747     -1.77159141942578      0.71898280004097
