23
Coordinates from ORCA-job NEB E -39.608904056900
  C           0.24456934825910     -0.55285668935175     -0.39255154482201
  C          -1.02156430898390     -0.47426731407307     -1.07172119166300
  C           0.21920808872358     -1.36078939196802      0.90081822387163
  H           1.05684643840017     -0.86675697971634     -1.05104305921220
  N          -0.97532283285065     -0.23863731951506     -2.49751815519621
  C           0.55955165028936      1.13935242811650     -0.08049836021953
  C          -0.59052730642490      1.57469791877508      0.65611532527158
  C          -1.85789031002623      1.53466906048214      0.04012929785847
  O          -2.05386353153227     -0.04130448587026     -0.45472047426398
  O           1.74937871542279      1.26997792450936      0.59969759877401
  H           0.62409988010721      1.53103495709506     -1.10114405916626
  H          -0.50541097135293      1.56345619418226      1.73172400501040
  H          -1.96731793510124      1.99795424590220     -0.93723167992600
  H          -2.71507962873415      1.70289538625370      0.67906119079155
  C           1.57473753521360     -1.52000758644128      1.57756039785259
  H          -0.14750026690158     -2.35414191090756      0.62669476694836
  H          -0.50155972945680     -0.92820803821480      1.59414809439881
  H           2.30763782389775     -1.91415264325348      0.87645493447021
  H           1.48539852676934     -2.22130048201404      2.40338466262785
  H           1.93388350185595     -0.57429148529663      1.97073237938348
  O          -1.94343418692638      0.28928741852564     -3.00894143142043
  O           0.03810059024246     -0.57390544932852     -3.09303424763493
  H           2.48605890910972      1.01729424210885      0.03188332626558
