23
Coordinates from ORCA-job NEB_reactant E -39.638354898110
  C           2.79566033532177      0.25840918482192      0.45860855222650
  C           2.22708896861046      1.21493516036788     -0.27886660692519
  C           2.24745902982854     -0.25625515781921      1.74206300366425
  H           3.70295005488387     -0.19591600276582      0.08510774583429
  N           2.85276514510046      1.60829552033364     -1.54104669838106
  C           1.13673970666538      5.11762548623839     -0.65994952528119
  C           1.81786421750145      4.17817175913261     -0.01365065792318
  C           1.15268231205844      3.07317008033146      0.73755809713205
  O           1.06375583603565      1.84443581954390     -0.01194545853350
  O           1.65750682304976      6.12226645321495     -1.38169950202728
  H           0.05726068267441      5.16353930258780     -0.63504278681985
  H           2.89966685632232      4.15720937921925     -0.06210717664716
  H           0.11126448103166      3.32080586296675      0.94582099961674
  H           1.68046460386432      2.86905403670562      1.67869422150757
  C           2.16769761623250     -1.78224782831804      1.72883022428622
  H           1.25965136154219      0.17149533478866      1.92029667400982
  H           2.91223118831911      0.05521591054119      2.55413868114038
  H           1.50218701031066     -2.11816437634492      0.93789297671798
  H           1.78555830524513     -2.14422419362021      2.67957139764491
  H           3.15061092403240     -2.21600246981771      1.56198517148096
  O           2.27691739327545      2.43056324688295     -2.21614221183477
  O           3.91366881639652      1.08946451782185     -1.82870321536423
  H           2.61394833169754      6.01315297318706     -1.46631390552426
