23
Coordinates from ORCA-job NEB_product E -39.628931923590
  C           2.49025057363496      1.21445788004481     -0.03364056908946
  C           1.40879735880625      0.93677498707657     -1.01924619321914
  C           2.27797763661497      0.38022428811279      1.23571302906348
  H           3.44804207185471      0.94966939139216     -0.49988245437397
  N           1.72812586593021      1.52539061541889     -2.40493751818016
  C           2.54730526604324      2.75583238759383      0.20307533473921
  C           1.35866184874449      3.22518410768913      1.00173463025921
  C           0.20320516140462      3.56343241831839      0.46210602254060
  O           0.38002033568846      0.36220397665512     -0.88885509258639
  O           3.77067163076467      3.03763873097097      0.83851458726262
  H           2.52930046417503      3.25073609581708     -0.78439224878364
  H           1.51863995571646      3.27024490902308      2.07014964959678
  H           0.03344347225769      3.52663761729854     -0.60203935676745
  H          -0.62747275057653      3.88801573212882      1.06370248147160
  C           3.53902749868061      0.27769549954721      2.08281057016800
  H           1.96472450928258     -0.62110024122266      0.93176590678245
  H           1.46316002397069      0.81251667278108      1.81739214251160
  H           4.33170995822539     -0.21566515554973      1.52548057110778
  H           3.33658080368924     -0.30219119190036      2.97957653103903
  H           3.88982637167002      1.26319565439431      2.37099085774256
  O           0.84364706060542      2.15076370046434     -2.93145303093562
  O           2.83481630687635      1.31947509266594     -2.84100656833143
  H           3.83663857594045      3.98716683127971      0.98504071798235
