73
Coordinates from ORCA-job A2R E -96.019606460130
  Ru         -0.39455845000223      1.88252176410403      0.21971836141749
  H          -0.49506721020812      3.42699532945298      0.14922693631330
  N           0.88931173921223      2.14441462506186      1.81604910041216
  C           0.43430256362529      2.59212268327467      3.00239186574139
  C           2.20428744020836      1.87030238795644      1.70156296585296
  C           1.26890683910477      2.76615396863285      4.09605848962576
  C           3.08559552315582      2.03228875342854      2.76052971513142
  C           2.61962472952278      2.48181317632289      3.98398992531852
  H           0.85752809768552      3.12822049189184      5.02638144078733
  H           4.12929159601028      1.79716599336960      2.61969802110466
  H           3.28684572849325      2.61016862702655      4.82181649939689
  P          -1.96860986371620      1.95257652460126      1.86292304335199
  C          -3.56777818240763      2.96701975228811      1.70324396997061
  C          -2.36001805246786      0.36465571251084      2.85855552111371
  P           1.55086404075535      2.00928708053930     -0.91336623319219
  C           2.07109337308575      1.04597341722904     -2.37538721964178
  C           2.31157432527289      3.63800074453230     -1.29690685961975
  C          -1.01711529263132      2.94650987804415      3.10310978022104
  H          -1.13364804654052      3.98565472065904      2.77016596194856
  H          -1.38378594469003      2.86133888559803      4.12945191174906
  C           2.69468026677948      1.36937694917932      0.38180253064873
  H           3.74225984781203      1.63549564959690      0.21057136768756
  H           2.59750527156481      0.27520852582120      0.33975173850934
  C          -1.49736649149912      1.61510928888251     -1.23005076402060
  O          -2.16557167601420      1.40526556092009     -2.15367576236492
  H          -0.16013588821228      0.34769974849925      0.31591217886663
  C          -4.08668182433008      3.58467773719986      3.00245316627189
  C          -3.27336664909294      4.10529581484407      0.72450296024960
  C          -4.62967003048826      2.07421365728413      1.05999223418648
  H          -3.38194201097171      4.30919286533582      3.40385459984817
  H          -5.01606397118496      4.11286297996845      2.78873130660561
  H          -4.29600555420913      2.84470227744816      3.76588532321371
  H          -2.95957067884058      3.70576179871474     -0.23829996424608
  H          -4.17031132663582      4.70715274417901      0.57978200259489
  H          -2.48375534835092      4.75753974942173      1.09155663294546
  H          -4.18863661709772      1.52277897420815      0.22785622784766
  H          -5.05411228661888      1.37127888071346      1.77206068509580
  H          -5.44384506111488      2.68455006891031      0.67012320871504
  C          -1.00733545686747     -0.13647555254547      3.37707970500551
  C          -3.30151066148334      0.49672862811480      4.05327135253782
  C          -2.91152428810410     -0.66300157766380      1.86733166813676
  H          -0.63450458936437      0.48237564340043      4.19172000112520
  H          -1.10615594953120     -1.15522420687881      3.75256749626731
  H          -0.26931158221112     -0.14124873798784      2.57502224444577
  H          -4.32091535396069      0.71327239386091      3.74683539413377
  H          -3.31678350143318     -0.45166946483642      4.59172579661841
  H          -2.96480088287648      1.26370692936181      4.74812874269066
  H          -3.97023658263029     -0.51359956239511      1.67690963677050
  H          -2.37817410010360     -0.57350140169831      0.91962644913477
  H          -2.78179491296686     -1.67414949005866      2.25369726602745
  H           1.74344354202954      4.10236478639275     -2.10267158482202
  H           2.24109801903199      4.27507553786975     -0.41484583761033
  H           3.35421108796077      3.52529169202350     -1.59656574841140
  H           1.46504113241070      1.34709004687069     -3.23076055846123
  H           3.12692129775925      1.21499381977580     -2.58961780014228
  H           1.89365133674101     -0.00827267592286     -2.17315904640735
  C           1.08968590812717     -2.28630183546882     -0.38841326263862
  O           2.23805782122435     -1.91350390943408     -0.26174318280728
  C           0.38646830757277     -2.18999701241109     -1.69091582469549
  C          -0.98360543553369     -1.96098011908253     -1.78387955869850
  C          -1.57786790638527     -1.80364988820954     -3.02194267958268
  C          -0.82113857594448     -1.89944465791213     -4.17825038164062
  C           0.53947302205001     -2.14759950051006     -4.09667876896799
  C           1.14166024272182     -2.27948364288595     -2.86039222793952
  C           0.30684355791588     -2.87184728313973      0.75566934656283
  H          -1.58204140948727     -1.87093681238089     -0.89191943004423
  H          -2.63566585518997     -1.59811710891484     -3.08490667792077
  H          -1.29151930412978     -1.77781135336598     -5.14292368566220
  H           1.13180305571689     -2.22774848034694     -4.99665604053571
  H           2.20365371285578     -2.46556834889960     -2.78019538569977
  H           0.98061876845351     -3.13583464658126      1.56744345808132
  H          -0.25889590340593     -3.74237218130366      0.43337261498093
  H          -0.38990348592549     -2.11620781448755      1.11311364051088
