73
Coordinates from ORCA-job A2S E -96.019942572590
  Ru         -0.42948290204831      2.03029051583623      0.03021040820266
  H          -0.34791287011226      3.57459647811246      0.10919448146122
  N           0.78888482704824      1.99083658918641      1.68956958216775
  C           0.30416877939736      2.31282614434897      2.90581193883920
  C           2.08046893773671      1.61689087082345      1.60077706002794
  C           1.07112242367137      2.21613494917382      4.05682706716185
  C           2.89522059177266      1.51023578583946      2.71904899882068
  C           2.38792174900052      1.79546404281779      3.97463363995583
  H           0.63511245887044      2.47730684368453      5.00948962017218
  H           3.92138531581151      1.19833953549909      2.59590956793578
  H           3.00100132037725      1.70723471082045      4.85790143172924
  P          -2.08750200185984      2.12735405250163      1.58949285590732
  C          -3.52917077137840      3.36026402985833      1.46116919335087
  C          -2.74637770075889      0.51491417524936      2.37636635147443
  P           1.54753177008803      2.02732628644507     -1.04551896016213
  C           1.98161494596335      1.00599759307031     -2.49853616698609
  C           2.43136365786253      3.58575976269788     -1.45422559065179
  C          -1.09550922064637      2.84087653826820      2.98125520657573
  H          -1.05727151627838      3.91699863452246      2.76784263134914
  H          -1.53358872687508      2.69254343918811      3.97171017725447
  C           2.63637276799790      1.29662358462968      0.24923153730310
  H           3.67960754029029      1.61864396352890      0.16322995216691
  H           2.59695291332298      0.21297700099407      0.07550215975970
  C          -1.48995767662076      2.06127195299241     -1.47540346033567
  O          -2.13870612785917      2.07182894408407     -2.43560457845589
  H          -0.37661155397747      0.47008912606065      0.00129007581110
  C          -4.06186786792176      3.89152095022065      2.79261944013599
  C          -3.02674255483434      4.55471800057164      0.64804132175441
  C          -4.64127679109134      2.69146426026422      0.65194666038081
  H          -3.29671485711063      4.44777004898112      3.32932133754172
  H          -4.88509240294486      4.57646096031446      2.58857251175092
  H          -4.43865109583794      3.10754805595783      3.43839779976790
  H          -2.70034852934165      4.23215763849954     -0.33863818742397
  H          -3.82944357763328      5.28251303453042      0.53078987890371
  H          -2.18955100604381      5.05010295867087      1.13527200274701
  H          -4.21005172700847      2.18975531182662     -0.21605997009003
  H          -5.19608924837223      1.96821600433569      1.24385963470302
  H          -5.34683741172975      3.44164267906617      0.29575478524553
  C          -1.51414206050620     -0.18950744347174      2.95039011174772
  C          -3.77691646200940      0.64290630987568      3.49550038865168
  C          -3.30311475905632     -0.34998047828235      1.24423552614490
  H          -1.14402986802381      0.30128484719214      3.84864396377056
  H          -1.76420396243442     -1.21623872981557      3.21380118807646
  H          -0.71522259343309     -0.22367583902097      2.21029550126269
  H          -4.73351664875093      1.00626717943069      3.13135272045295
  H          -3.94526980641959     -0.34491442766643      3.92610370974600
  H          -3.42437344670447      1.29345130769530      4.29351440762225
  H          -4.28529123262927     -0.01563953656848      0.92327832937865
  H          -2.62770148240646     -0.30554954343281      0.38930955447083
  H          -3.38666880031677     -1.38703467330207      1.56843796079554
  H           1.89931559693393      4.07902511048866     -2.26747569851216
  H           2.41058541445099      4.23979096575332     -0.58249391480035
  H           3.46168629217131      3.38777699927991     -1.75237629609330
  H           1.39347939891313      1.34193806978103     -3.35339406234590
  H           3.04534844316364      1.08692312781200     -2.72444846095878
  H           1.72897802716910     -0.02856429802808     -2.27291552250621
  C           1.11130445309666     -2.25312164053116     -0.21827903420426
  O           2.18035917869336     -1.76251877153115     -0.52280232907138
  C           0.78905499866878     -2.55100787578307      1.20038477932050
  C          -0.30173076935832     -3.32562434262771      1.59034108791862
  C          -0.52263097638588     -3.59156022810841      2.92915590088735
  C           0.32419555409141     -3.07480821155889      3.89705371149249
  C           1.40158742971935     -2.28930420467605      3.52157073982029
  C           1.63661962384580     -2.03995586943783      2.18443199414514
  C           0.06702968726350     -2.57142089493284     -1.25150662751564
  H          -0.97801960008575     -3.73194423201962      0.85494450899279
  H          -1.36297436638244     -4.20493454975601      3.22171246212177
  H           0.14261922679820     -3.28326315893195      4.94131832100271
  H           2.06117263287310     -1.87729605156855      4.27116811585628
  H           2.48325100088349     -1.44338783061106      1.87899999915198
  H           0.44742064506781     -2.33251637230785     -2.24169872636329
  H          -0.81716628093335     -1.96700751367504     -1.05630310296581
  H          -0.20770634889318     -3.62278265313607     -1.21640360374563
