73
Coordinates from ORCA-job A3R E -95.986309428650
  Ru          1.87120027103261      3.78296526925707      0.12084369585938
  H           3.23732277718445      4.42100770011336      0.04741760920952
  N           2.66483961845058      2.46548343023345      1.56583157341018
  C           2.90232270397433      2.85650869579933      2.82438701005723
  C           2.88661761635816      1.15453317166246      1.21537572622890
  C           3.23508059540745      1.97735980876514      3.83206025826654
  C           3.18698974439539      0.20697438430741      2.23744942135801
  C           3.34670476063685      0.61243063058582      3.52590823154890
  H           3.41300013063770      2.33595927843303      4.83348597708228
  H           3.29869523852408     -0.82778924028806      1.95170805360753
  H           3.57993440937972     -0.09663770451605      4.30685446049117
  P           1.60417235939787      5.12162094978564      1.99363756078939
  C           2.17826060520325      6.93041329042617      1.96222416141651
  C           0.01604915431500      4.98489123200078      3.03192036993289
  P           2.78966066509080      2.15096444847373     -1.25288949109872
  C           2.36250539184979      1.42211068949865     -2.88268797569989
  C           4.56556281085362      2.52318132072091     -1.62545017825185
  C           2.85539538661538      4.33519226296892      3.09317701610651
  H           3.82313662959633      4.75376818172487      2.79090351922407
  H           2.69505476366635      4.55343021720041      4.15159218587052
  C           2.77093226225083      0.79302909259338     -0.12461881030952
  H           3.03082232335033     -0.20428899631586     -0.45303900831096
  H           0.77235284175323      0.62448863741015      0.49092552985679
  C           1.25702055556143      4.96989901921913     -1.13986868602777
  O           0.94371697314633      5.76991545406701     -1.91664358677562
  H           0.21722252764528      2.90079666381097      0.12288996454419
  C           2.70085426458847      7.45053932582979      3.30280336824603
  C           3.31787519560566      7.01853139989426      0.94426602924319
  C           1.03322590865019      7.80702927592194      1.45473716521529
  H           3.59173362310873      6.91134412084587      3.61534464004330
  H           2.97363512875316      8.49928442929997      3.18699381285272
  H           1.96162250998939      7.38730915577609      4.09287237551087
  H           2.96410535876553      6.75449414688178     -0.05127862638598
  H           3.70594611624381      8.03603276231057      0.91654085406393
  H           4.13826687008270      6.35105602468426      1.20226269616884
  H           0.57358521134372      7.35015695123306      0.57867150719739
  H           0.27527442846343      7.96373201333197      2.21751579529720
  H           1.41698312523066      8.78392056605431      1.16348039867300
  C          -0.07544022335681      3.50215202649840      3.41360751762102
  C          -0.05778935122099      5.80408877168184      4.31749450985733
  C          -1.15106269975883      5.35845162509029      2.11326900983758
  H           0.62912188281883      3.25725322985265      4.20600057392019
  H          -1.07541591959430      3.26937454166178      3.78016677896701
  H           0.13596030740842      2.84875343592723      2.56608442073543
  H          -0.12479498067076      6.87013727252617      4.11859291594539
  H          -0.95656343702329      5.51526536517097      4.86333017921265
  H           0.79536849030112      5.61328986982330      4.96543405546086
  H          -1.27547010321476      6.43563278834673      2.04951337004988
  H          -0.97412613647798      4.98025493342257      1.10406334241010
  H          -2.08430981236588      4.93847642738869      2.48615953817738
  H           4.62988022649201      3.32784428723860     -2.35675744947291
  H           5.05296926466593      2.84149022779291     -0.70438910127398
  H           5.05923199674038      1.62944312933002     -2.01025355128652
  H           2.33271342096416      2.20908731694099     -3.63526514433732
  H           3.14202685074128      0.70447425488622     -3.14137140725945
  H           1.40420298490789      0.91418460082646     -2.85462709691960
  C          -0.51568748783947      2.00344114757572      0.02357892759416
  O          -0.09111968534300      0.94837515399893      0.82893709859630
  C          -0.66070973544303      1.63512891822836     -1.43668321114747
  C          -0.73069816236649      2.61759238155223     -2.41560647227006
  C          -0.97089338456977      2.27442438792375     -3.73346018487654
  C          -1.15207224715217      0.94677227783382     -4.08521179300814
  C          -1.09618600267958     -0.03582595716670     -3.11139654656131
  C          -0.85712164419847      0.30607276144984     -1.79165391435979
  C          -1.90943249111638      2.41789828088114      0.50468669096363
  H          -0.59753874158277      3.65588259535428     -2.14530340017454
  H          -1.01842768031298      3.04610584009094     -4.48715862190045
  H          -1.34054741380359      0.67999815391630     -5.11441007292707
  H          -1.24272092972044     -1.07237853475801     -3.37772831523382
  H          -0.82569002840086     -0.45628344031582     -1.02670633975520
  H          -1.90741776312717      2.61125773556323      1.57165638335939
  H          -2.59001611348508      1.59073539746115      0.30993932011182
  H          -2.25922410731775      3.29455073600340     -0.03303661456794
