73
Coordinates from ORCA-job TSA2S_3S E -95.977728164190
  Ru          0.28291529047878      0.81392519140867     -1.24598242395189
  H           0.19220047114457      2.33140691409409     -1.38118671701940
  N           1.51583936278800      1.12204640239698      0.42032407095556
  C           1.02570691803102      1.55562592337808      1.58474147167234
  C           2.82150134483777      0.75667448837012      0.32147297646404
  C           1.79162723318978      1.58886864205128      2.73878463035547
  C           3.63231916503698      0.75336351975744      1.47424198710376
  C           3.11508780380995      1.15830799887662      2.67871073323668
  H           1.36573335677301      1.94500290506402      3.66332685678633
  H           4.65798218580985      0.43018090523300      1.38543782839747
  H           3.72669178788056      1.15919472461240      3.56865080189097
  P          -1.37212417791560      1.07338140302788      0.34614839325904
  C          -2.84251698318469      2.22346607726330     -0.00203417535857
  C          -1.97945782753341     -0.40019773364546      1.38975340056526
  P           2.31092973479257      1.01383167386272     -2.30937041283107
  C           2.92493009461259      0.15503488630884     -3.80226318818081
  C           2.96168157547676      2.70544447538073     -2.63151263377415
  C          -0.39274758274276      2.04731135345810      1.58129105045413
  H          -0.38852864942590      3.07556737993611      1.19978444349559
  H          -0.82754500635049      2.04377781651247      2.58334773751862
  C           3.31373015900049      0.34408023858750     -0.96209754800797
  H           4.39499584512184      0.36614836146957     -1.08633423803395
  H           2.95570047261746     -0.94905915463308     -1.22632828307921
  C          -0.78552605422234      0.54186683669280     -2.71975907729526
  O          -1.45334904318265      0.39950230598965     -3.65211320047513
  H           0.67138589854061     -0.94008538552660     -1.08286006266087
  C          -3.39007291444908      2.94949948110042      1.22801970608998
  C          -2.37182831038012      3.28332296328646     -1.00044574185337
  C          -3.93898344174675      1.40471586199283     -0.68455509501152
  H          -2.64128347883738      3.60673091478322      1.66355922181632
  H          -4.23260463946800      3.56823171289640      0.91998185332268
  H          -3.74428212693322      2.26969871529441      1.99361143492736
  H          -2.04841812667595      2.81749340166908     -1.92987919926366
  H          -3.19163343410855      3.96610756745343     -1.22006647452364
  H          -1.54287901268671      3.86767000000051     -0.60604070451872
  H          -3.50467940108460      0.79018930348164     -1.47360764302372
  H          -4.46611255233541      0.76525590473634      0.01826175278779
  H          -4.67031750246770      2.07160477105180     -1.13935680663967
  C          -0.72436225852975     -0.93417371486737      2.08494418473743
  C          -3.03295697048211     -0.13638361467988      2.46131989752616
  C          -2.48562921554203     -1.45483375979457      0.40427372253143
  H          -0.43882412575539     -0.31265291903060      2.93125491532574
  H          -0.89825450942443     -1.94364960645242      2.45491469207716
  H           0.11563604883465     -0.98529211929394      1.39217290548202
  H          -3.99774658649428      0.12203965340226      2.03431694238331
  H          -3.16613313109579     -1.04815864765877      3.04412103571845
  H          -2.71988173763583      0.64897627951292      3.14638809262124
  H          -3.47308217199095     -1.20900056266325      0.02379485031056
  H          -1.80113668752101     -1.52932703223708     -0.44260731149279
  H          -2.53967591759962     -2.42922912682432      0.88754712390534
  H           2.43800159900836      3.13856960431423     -3.48236641316953
  H           2.78309650415434      3.32717610382360     -1.75512668300136
  H           4.03134289768604      2.65688647191912     -2.83992398252883
  H           2.36335599064363      0.50063905695072     -4.67041560873570
  H           3.98322840166189      0.38077934933631     -3.93712083636982
  H           2.79552287783861     -0.91797257218907     -3.67591660449344
  C           1.11651642782272     -2.05902821454278     -1.35849607295014
  O           2.41944196163623     -1.99296466595285     -1.68122438269051
  C           0.90781525996898     -2.90125355780198     -0.10838117670573
  C          -0.10572067033524     -3.84223570336477      0.02188960325357
  C          -0.19986495555144     -4.62089194225902      1.16334242512980
  C           0.71404234329726     -4.47511760344767      2.19151920144337
  C           1.73260027994134     -3.54512018037885      2.06887386709860
  C           1.82831528817393     -2.77068263193227      0.92912663452548
  C           0.28152549515429     -2.52500798074808     -2.55951632156868
  H          -0.82752825282121     -3.98711155053345     -0.76615768297304
  H          -0.99261693908868     -5.35147930922684      1.24517881715650
  H           0.63786840396431     -5.08637639521432      3.07926890979329
  H           2.45700262166844     -3.42462926078674      2.86152091867149
  H           2.63446382389572     -2.05689850594852      0.83415432388336
  H           0.52411606476629     -1.90010306061249     -3.41769902237988
  H          -0.78774267648366     -2.45765164416825     -2.37313892392406
  H           0.55119608202311     -3.55302938432275     -2.79548876618762
