18
Coordinates from ORCA-job TS E -28.281795930230
  C          -0.72763467965438      0.77147639225113     -1.36452100121688
  C           0.49173924342686     -1.69328064812958     -0.35229941686728
  C          -0.82329978373644     -1.54778841224984     -0.57292990016700
  C          -1.41790170082714     -0.37024112987883     -1.12092300387125
  C          -0.36729290555729      1.38710471833839      0.69475170325027
  C           0.39104982539231      0.46008431389374      1.32968624106123
  H          -1.50431970700251     -2.31619955817775     -0.23159483178596
  H          -2.49836989615836     -0.35570574104911     -1.17755190183146
  H          -1.24291732913601      1.64012781162873     -1.74137430374620
  H           0.88294323833669     -2.55478156049699      0.16126166531500
  H           0.33839124388987      0.76329993291565     -1.51817787765495
  H           1.22342121153908     -1.02731983207606     -0.77333565715326
  H          -1.40679425937695      1.49234038923056      0.94860631318658
  H           0.01557473100473     -0.29136515428805      2.00304443276683
  H           0.12680887690036      2.24091339108470      0.25985117145720
  N           1.79451924516560      0.46646381484257      1.18892475565978
  O           2.43858621887044     -0.24811119003536      1.93607898395638
  O           2.28549642692312      1.18298246219609      0.33050262764095
