16
Coordinates from ORCA-job NEB_reactant E -37.038264213050
  C           1.97413561261365     -0.09845145312144     -0.01647457572838
  C           1.22528181603155     -1.13311058017333      0.41414600665035
  N           2.32434887301105      0.09827365010212     -1.37675485161016
  H           2.35331445726229      0.64973752977252      0.65906316804338
  Br          0.84901411281793     -1.20381489489552      2.28955812494235
  C          -0.19740526706261     -5.30783304553301     -1.03240857491573
  C          -0.39563006403696     -4.00313343155051     -1.03874539698847
  C          -0.06624410628313     -3.12708971178493      0.12444148938831
  O           0.75778903135270     -2.07159338778616     -0.35750857898020
  F          -0.52118303424552     -6.07087079894547     -2.07616336172728
  H           0.20441380175505     -5.88904230289722     -0.21340525196512
  H          -0.79087113750777     -3.50961318780723     -1.91311520996741
  H           0.45904953627185     -3.69120459603525      0.90468967074492
  H          -0.98574571366752     -2.70045543922912      0.55040015196508
  O           3.01616469541465      1.06876962004446     -1.61087792887833
  O           1.92296738627280     -0.68746797015991     -2.20894488097332
