22
Coordinates from ORCA-job NEB_product E -33.733585988850
  C           3.22422589239097      1.46726688172209     -0.57097145025594
  C           1.94322513542910      1.46917058331260     -1.40267963551874
  C           3.08449350975232      0.46454676856872      0.45735878477065
  H           4.05625774409827      1.17688566512518     -1.22259806368651
  O           2.19481741525020      1.00697570404217     -2.62994282202763
  C           3.49112879661532      2.86675081689264      0.03952764125467
  C           2.37520169769137      3.27076024924165      0.95647262030963
  C           1.70292038609059      4.39978527128023      0.84639206790794
  O           0.86686289577506      1.83315304358723     -1.02322607537380
  C           4.82097631009018      2.84991664152927      0.79694581318255
  H           3.55796725643649      3.58259376597899     -0.78745638196689
  H           2.15848087398164      2.57215427880737      1.75306884787053
  H           1.90153548396078      5.10607776550213      0.05628376398707
  H           0.91987745770923      4.66339935944730      1.53512511037100
  N           2.98528980067673     -0.34013335386269      1.26267053521846
  C           1.08171701467920      0.93705881604770     -3.51397954941892
  H           1.46364287094433      0.54125709164450     -4.45107189852683
  H           0.65344381374192      1.93040525107299     -3.65997944540522
  H           0.31440382666302      0.27959361035762     -3.10167368767422
  H           5.64090730510101      2.58080127001599      0.13372490000976
  H           4.78448530080741      2.13222464095867      1.61381542262815
  H           5.02013921211486      3.83535587872766      1.21099350234430
