21
Coordinates from ORCA-job NEB_product E -53.420209257620
  C           2.48252896715187     -1.21693722016195     -1.18032858064227
  C           1.11236040136370     -1.86913167636956     -1.08771585282176
  C           2.32306394437436      0.27773444302985     -0.91462999391298
  H           3.14007812095057     -1.62963861878585     -0.40905404986194
  C           0.95479005799394     -2.98559256571481     -0.03770038410396
  C           3.17917818535121     -1.52924178083124     -2.53488878605682
  C           2.35883498858964     -1.24968263589854     -3.76164687968692
  C           2.79886435951406     -0.50598232097487     -4.75982160080026
  O           0.19271966631012     -1.59563096839312     -1.79828576780283
  O           3.52128599344487     -2.89919082814088     -2.45198277353588
  H           4.09782420766187     -0.92007259788262     -2.56563479491683
  H           1.40400402914752     -1.75089872595527     -3.81454824334460
  H           2.21399701388048     -0.35251593891392     -5.64947590511691
  H           3.75284207480167     -0.00488675924873     -4.71967652059257
  Cl          1.36688521687174      1.10068803377710     -2.15075033258149
  Cl          1.50059003269250      0.49212750210772      0.65724866382252
  Cl          3.91491146894205      1.05573266995862     -0.81240463916437
  Cl          1.51998700040195     -4.45933454805267     -0.86284804888495
  Cl          1.89466967398432     -2.74157119999174      1.43699386739465
  Cl         -0.75307235096983     -3.15889251086218      0.38603663665644
  H           3.87995694754140     -3.18398175269534     -3.29968601404629
