21
Coordinates from ORCA-job NEB_reactant E -50.208024000540
  C           2.47716309452624      0.54988004453726      0.48702833120105
  C           1.56631292720850      1.38185149561550      1.01647643656588
  C           2.91404402130347     -0.67818648353200      1.00646987274787
  H           2.94014826815637      0.83099493156638     -0.44937058832770
  C           1.24844175566269      2.68661399389307      0.30901248140501
  C           3.21505021104556      1.21887027107441      3.71253041472566
  C           2.39002373558783      0.18380373569155      3.69038682093612
  C           1.05033836304049      0.19205925468007      3.01909921816536
  O           0.84105970708978      1.28642851325880      2.14486747717832
  C           4.56807393319828      1.22633498955964      4.32375598226290
  H           2.96131531879564      2.15865643802876      3.24002409328239
  H           2.64795373500730     -0.75079150036468      4.16486998478140
  H           0.26205577799003      0.28997000988834      3.77354532928631
  H           0.90183318080348     -0.75450328611375      2.48566202845873
  N           3.30385817983058     -1.69072412862133      1.38124182071942
  F           2.23045357455459      3.59323299987767      0.53918318893463
  F           1.19326478367316      2.52112474111001     -1.02950518426958
  H           0.29724799366461      3.11621557418702      0.65523655535754
  Cl          4.71945975795914      2.62662526039717      5.42020956350478
  Cl          4.95147938259063     -0.23878485550264      5.23099218290935
  Cl          5.77592229831162      1.40922800076877      3.01108399017454
