22
Coordinates from ORCA-job NEB E -38.843552235860
  C          -0.69230364567005      0.48433203338810     -1.08353519178977
  C          -1.67831536505034      1.21239988187346     -0.42397428510648
  N          -1.04773196911891     -0.76117777320915     -1.70560927911107
  H           0.06100776057420      1.00947399652796     -1.65566912042504
  I          -1.26574734475230      3.34812945537209     -0.31232851528915
  C           0.31282257781909     -0.36344802688358      0.59522222818066
  C          -0.51224174702670     -0.00291971576562      1.65096571060708
  C          -1.86313012170950     -0.35745232617097      1.62142708593918
  O          -2.52058761484168      0.76323924433346      0.35752113423800
  C           1.71600093025334      0.15833999817806      0.49494564889646
  H           0.16514416877556     -1.35524754019919      0.18419104418747
  H          -0.21824970321170      0.84280932352651      2.26148950452635
  H          -2.51369490982744     -0.04676634917498      2.42497497172468
  H          -2.15481430318906     -1.26897367734193      1.11523569469309
  O          -0.40093807066452     -1.06224703220004     -2.68639564462233
  O          -1.94663849178760     -1.42364480003392     -1.23523067487685
  C           2.50647146017044     -0.46859656529837     -0.64751204606051
  H           2.21885093753232     -0.06807586769875      1.44063150491931
  H           1.70367949327529      1.24694981723884      0.40047909278554
  H           2.57012093856359     -1.54663736926533     -0.51800174858159
  H           3.51638192621895     -0.06810493920955     -0.66772013201947
  H           2.04391309366704     -0.27238176798713     -1.61110698281557
