22
Coordinates from ORCA-job NEB_product E -38.887104523470
  C           2.87880379393189     -0.36683676029976      0.75797596892897
  C           2.55418299406388      1.06994955965545      1.02336582383678
  N           1.61544341367759     -1.12489365168093      0.49050127271874
  H           3.51271332254999     -0.49393516429386     -0.12276965020286
  I           3.73308988759470      2.42904162344071     -0.20459702545289
  C           3.54944673908518     -1.04771615269267      1.99019873895286
  C           2.64673750403402     -1.01789238970189      3.18837901179320
  C           2.12668213355214     -2.10277507060079      3.73221790536595
  O           1.76473954170826      1.50770962370933      1.77943476590264
  C           4.90011190716373     -0.39352428027306      2.31946949442209
  H           3.72912997040113     -2.09065186613832      1.70176000625862
  H           2.44631665862743     -0.04296003481673      3.60778190587985
  H           1.49552780281571     -2.05051768465742      4.60101221508258
  H           2.30741947800465     -3.08720562686025      3.33105875839575
  O           1.65121800146444     -1.86194112685197     -0.46246724487195
  O           0.69359866938378     -0.96706159508649      1.24101724204028
  C           5.95985562982455     -0.60570368348282      1.24513299836279
  H           5.25007672365494     -0.84069042188560      3.25242009706691
  H           4.76036606015733      0.67387757961210      2.50304891184026
  H           6.06362425273727     -1.66341026467315      1.01396833559738
  H           6.91909000891259     -0.23993595019396      1.60119110084534
  H           5.72412550665477     -0.07032666222792      0.32909936723671
