20
Coordinates from ORCA-job NEB_reactant E -29.902139094250
  C           1.28541741082136     -0.28412433729299     -0.17279308775506
  C           2.00281806236423      0.85066797868161     -0.33510219612071
  N          -0.06167197251838     -0.36103623710172     -0.40202175439987
  H           1.76619329795728     -1.16519679532029      0.22259054993205
  C           3.36643908994889      0.87028502857126     -0.00071486446909
  C           3.18334574599145      1.95929501202064     -3.06161022357136
  C           3.19854788944758      2.93375999192635     -2.16873501448514
  C           2.20769892685048      3.09960960954206     -1.05114349184956
  O           1.37449650805442      1.98490192865731     -0.83207096027793
  C           4.18425217454295      1.79830897920153     -4.15399753248622
  H           2.41057295156469      1.20156385284586     -3.02608641847358
  H           3.96355833528581      3.69715357317600     -2.19618446485710
  H           1.51694154336853      3.91928404802812     -1.28317572775257
  H           2.74737349329432      3.36087898339881     -0.12799687660660
  H          -0.44913912853163      0.41936372943587     -0.90979672820805
  H          -0.45123370585007     -1.26352684589857     -0.61451702708228
  N           4.48444863500321      0.86916344627927      0.27056388473043
  H           4.71733989600573      0.85569117782430     -4.03264553589873
  H           4.90502639717445      2.61159652704299     -4.14450074246896
  H           3.68587444922468      1.77526034898160     -5.12276178789967
