20
Coordinates from ORCA-job NEB_product E -29.890257836850
  C           2.85665709963695      0.64496495600579     -0.82829338022042
  C           1.53035318594124     -0.06899161445027     -1.09167897940998
  N           2.86610869543862      1.34613277542043      0.43183325306810
  H           3.65573020724427     -0.10819265674751     -0.81976716075396
  C           1.55324483150299     -0.88676014958436     -2.28956435467300
  C           3.12764706787630      1.61527650870169     -2.01301415948730
  C           2.02584826111177      2.63239976644642     -2.10483785482676
  C           1.03528289928811      2.57113765770019     -2.97433096169708
  O           0.56489839386563      0.03842637769957     -0.37862907562603
  C           4.48161814747265      2.29270522778420     -1.82054201664638
  H           3.14207573375468      1.01908588391905     -2.93219125753343
  H           2.08540172051925      3.44420859012108     -1.39294327429558
  H           0.95962587530229      1.77358940703315     -3.69686634637089
  H           0.25728884650941      3.31438508026114     -3.00593037841672
  H           2.04381527779712      1.93781246084420      0.50317436707950
  H           2.83819758821523      0.69388950350487      1.20755812510637
  N           1.62618300973148     -1.53094746386439     -3.23392668617169
  H           5.28310381278796      1.55908143766484     -1.85461678362732
  H           4.50967472177434      2.79335886318184     -0.85691734239453
  H           4.64394462422972      3.02323738835807     -2.60911573310289
