20
Coordinates from ORCA-job NEB E -44.738796023910
  C           1.02577344131088      0.67610303775098     -0.13395352422742
  C           0.23008926284401      1.82136611394079     -0.08524469604057
  C           1.25090076529194      0.06751013226090     -1.50155373164293
  H           1.92582496892787      0.68092538831553      0.47155164370850
  I           0.46765739258050      3.08610062065142      1.64787747120673
  C          -0.22039096191994     -0.54329135101621      0.76452246058153
  C          -1.39521331311868     -0.39076888735968      0.02431464059860
  C          -1.99495564307840      0.90302067996207     -0.01470698873906
  O          -0.89658953983987      1.87983689022768     -0.67526280595262
  C           0.37680079417036     -1.91907488594289      0.91288644118981
  H          -0.16747771399520     -0.02563150739106      1.72042203426346
  H          -1.60061845975626     -1.07920703634075     -0.78029506815457
  H          -2.14594196830065      1.39365832871804      0.94592723884744
  H          -2.84569136758045      1.01879127877555     -0.67521830625993
  F           2.19773811976480      0.81868062326523     -2.15471767323047
  H           0.34567913693741      0.09375438582283     -2.11492859467338
  H           1.65370392274311     -0.94520812417933     -1.43671680193042
  Cl          2.08979068864828     -1.86539352843531      1.38601060284867
  Cl         -0.52153087812228     -2.73976533053327      2.23478236825288
  Cl          0.22445135249257     -2.93140682849252     -0.53569671064627
