20
Coordinates from ORCA-job NEB_product E -44.784029417870
  C           1.52732944823013     -2.05810974106410      0.99629404813727
  C           0.96970877147739     -0.66401822119240      1.05603127228900
  C           1.43178640748709     -2.56512635735109     -0.44960232286928
  H           2.59127036503793     -2.02841116397930      1.26129075416041
  I           1.50958559320785      0.39669608936364      2.86658827109791
  C           0.79459159405970     -2.89976526368075      2.07273550152066
  C          -0.69775304057182     -2.87112684275465      1.87593850854846
  C          -1.52651484050823     -2.32490318980026      2.74487234950191
  O           0.30726953252279     -0.11718678034252      0.24758726871585
  C           1.29981518033593     -4.34196696108506      2.19466157747708
  H           1.02330019447050     -2.43950153996072      3.04200484836133
  H          -1.06994273688535     -3.32822134860307      0.97149644047250
  H          -1.18165653464672     -1.87288004912471      3.66057924283788
  H          -2.58853629267209     -2.30935679173289      2.57501833676521
  F           2.46521828115343     -3.42068211410154     -0.70838761730371
  H           1.53390103154818     -1.72985266743899     -1.15109243746969
  H           0.50248223165624     -3.10087489087652     -0.65300953303779
  Cl          0.59882306082839     -5.03052019765623      3.69008699281008
  Cl          0.81120963581087     -5.39051623164430      0.85264554625641
  Cl          3.07151211745779     -4.39217573697454      2.34876095172850
