17
Coordinates from ORCA-job NEB E -25.511812408350
  C          -1.77453751456821      0.04545513653529      1.92682235115863
  C          -2.21721274319148      0.52132177608809      0.76226261317217
  H          -0.75535622537097     -0.02259849081811      2.28575682501362
  H          -2.51683080129151     -0.52610950131857      2.45524914522678
  Br         -4.08616939229437      0.13615161215602      0.39396014996920
  C           1.60978519283691     -0.12269730782565     -0.76438813090211
  C           0.38128860021797      0.12937051563058     -0.28156139553439
  C          -0.28742773176892      1.46581890432243     -0.14162111332255
  O          -1.70227330097747      1.28911454592483     -0.19962470665127
  C           2.19012613819996     -1.44603600588344     -1.15765340130959
  H           2.28683128247273      0.66727150311805     -1.02435529026333
  H          -0.23686738255486     -0.73885986603703     -0.05123450578975
  H          -0.01318594930364      2.14621678574404     -0.94123584217820
  H          -0.01753623026758      1.92064150638940      0.80779721759453
  H           1.50158420327471     -2.30709645783710     -1.20363251195942
  H           3.07829467321376     -1.82379974256939     -0.61101806053207
  H           2.55948718137295     -1.33416491361944     -2.25552334369228
