17
Coordinates from ORCA-job NEB_reactant E -25.530518760660
  C           2.35498061957380     -1.22493808525952     -0.13412675493394
  C           1.25941888079843     -1.54160809888840     -0.80220305931727
  H           3.24932825723043     -0.89838350550763     -0.63260139898355
  H           2.38491660219356     -1.30216523729776      0.93537368684590
  Br         -0.29842159242304     -2.15914412227564      0.10285298980643
  C           3.16909279968296     -3.23410430766697     -2.81971821881874
  C           3.14885127963788     -1.96355085103412     -3.18469634609830
  C           1.99117359737793     -1.02584698794277     -2.98995113217286
  O           0.98678356564931     -1.50579584364167     -2.11553637119711
  C           4.32192633881743     -4.15435944069713     -3.02625501850468
  H           2.30781450511874     -3.67183958319877     -2.33200685647029
  H           3.99736376563056     -1.51445625431390     -3.68307373786634
  H           1.47129236382735     -0.87508771669516     -3.94310000357349
  H           2.35318339909406     -0.04857559948168     -2.64025661506373
  H           4.67672169377711     -4.53015039960731     -2.06689662255389
  H           5.14077917992280     -3.65021381086776     -3.53341151493571
  H           4.01159474409068     -5.01308015562380     -3.62029302616242
