14
Coordinates from ORCA-job NEB E -30.320971942410
  C           0.99303113905464      1.10088935405318     -0.06087597252556
  C           0.74511276726044      0.54500365513445      1.18731262105258
  F           1.99760346373659      0.54899123781093     -0.77869932947724
  H           0.93347799258012      2.16862566696792     -0.23078461667396
  I          -0.50167376909625      1.79738359968561      2.44057457511597
  C          -0.54198007227326      0.27565034775045     -1.12261139368222
  C          -1.04240601845599     -0.75433929707648     -0.33092471877853
  C          -0.12492168785198     -1.65249525760567      0.23870730556191
  O           0.73436136013852     -0.68667522708741      1.40788897863249
  Cl         -1.60761907040804      1.57143312523407     -1.55490335865785
  H           0.16385068749807      0.04844085799909     -1.91325712934835
  H          -1.98213495569072     -0.59062120973839      0.18041489638212
  H           0.73328021795981     -1.94522885983211     -0.35474284175955
  H          -0.49998205445195     -2.42705799329563      0.89190098415820
