14
Coordinates from ORCA-job NEB_reactant E -30.353776591070
  C           1.89208541320972     -0.15123273702538     -0.24207483496966
  C           1.29631343163276     -1.30214895005088      0.04273168690529
  F           2.65412055463312     -0.01244664913782     -1.33691075255039
  H           1.83775936210361      0.74070705750129      0.35899785939100
  I           0.10261510559778     -1.32666893015985      1.81594977385718
  C          -0.72305538889962     -2.77982067782776     -3.16801075120814
  C          -0.58865223337830     -2.47517921388126     -1.88784102195067
  C           0.33657509065358     -3.21619458526883     -0.97184167775109
  O           1.47791226132879     -2.44057826827926     -0.62013496887899
  Cl         -1.76665519280649     -1.92612748694262     -4.22287964164846
  H          -0.19695273237857     -3.59709137937278     -3.63836138334071
  H          -1.12740457697020     -1.64223555582140     -1.45777185351687
  H           0.74700481117800     -4.10458075555553     -1.45360329238743
  H          -0.19646590590419     -3.50790186817791     -0.05504914195105
