26
Coordinates from ORCA-job P E -38.596461697580
  C          -1.44121088820048      0.32350326188458     -2.42828857310788
  C          -0.35652363824276     -1.92557602166019     -1.24898795710916
  C          -1.74743183337464     -1.99126847903406     -1.79146733858889
  C          -2.26574275466369     -0.92912045513337     -2.38580301998053
  C          -0.89783577679260      0.57402173533625     -1.00907116364544
  C          -0.08482181508472     -0.61362738464538     -0.47302051237786
  H          -2.28486214744096     -2.92287577486566     -1.70679439251609
  H          -3.25836914844292     -0.91684451764032     -2.80515177824797
  C          -2.23116963006955      1.52910560198297     -2.88693920476270
  H          -0.14752590807176     -2.78719281204427     -0.61435296801836
  H          -0.59410429286931      0.20190940381464     -3.11247031578727
  H           0.34652217474706     -1.94346385579985     -2.08897316790028
  H          -1.74543386189371      0.76968267699773     -0.35197701738075
  H          -0.34431602659745     -0.77409055555437      0.58698144996699
  H          -0.24241669002399      1.44557077488453     -1.00969669119382
  O           1.27967642915586     -0.23980033826133     -0.54979608582110
  O          -1.88987741559604      2.29242787781561     -3.75103589972060
  O          -3.37119010724062      1.65967406912934     -2.19641289806241
  C          -4.18137173124350      2.77593369851872     -2.53389054683198
  H          -5.06319926122877      2.71553506867919     -1.90128126607208
  H          -4.46122284152115      2.73721130500292     -3.58866852137008
  H          -3.64003193400146      3.70629707569742     -2.35048098982434
  C           2.16234728842012     -1.07618696666070      0.15099337338063
  H           3.13481589362623     -0.58809259739064      0.11923575871188
  H           2.24468234427179     -2.06828589480677     -0.30686994394935
  H           1.84948357237903     -1.19457689624698      1.19630967020944
