26
Coordinates from ORCA-job R E -38.513904252970
  C          -1.33968380326169     -0.51473680944106     -2.92417238696551
  C           0.02269430146441     -3.20738520314346     -2.97653835599236
  C          -1.17524913752174     -2.94921122338162     -2.45800236444366
  C          -1.76798380932514     -1.63338158339133     -2.32722255508464
  C          -0.06654314198484      2.79334732705947     -0.69512930028814
  C          -0.20810883380706      1.62845000404631     -0.08563050529997
  H          -1.77136276048024     -3.76781225446196     -2.07378624674188
  H          -2.64716052040150     -1.57151892164785     -1.69873173564517
  C          -1.98174544889481      0.79484755804415     -2.75511839801511
  H           0.39966549363602     -4.21359290839717     -3.04078673638085
  H          -0.49745116879661     -0.50605447519120     -3.59836344409537
  H           0.66766249606572     -2.42887478251615     -3.34566087197150
  H          -0.51543275228225      3.68204665770501     -0.29259309747917
  H          -0.77697709329360      1.52805943907244      0.83453790799654
  H           0.48547447698394      2.88094408783514     -1.61240865488129
  O           0.34724473940572      0.48082303434776     -0.56364675365210
  O          -1.74797980336317      1.75994017671826     -3.44115908560577
  O          -2.87957596296564      0.81467684857478     -1.74944319751062
  C          -3.53738212749603      2.05376588440103     -1.54507658740092
  H          -4.19893262229755      1.91244247740290     -0.69390014176052
  H          -4.10987899370596      2.33084950441239     -2.43312089734661
  H          -2.80454522202594      2.83691564178220     -1.33936392848961
  C           0.16544091639325     -0.65851618824135      0.23821053893142
  H           0.62099074181952     -0.52735366414959      1.22614556945681
  H           0.65581053462493     -1.48080369700170     -0.27865359637944
  H          -0.89767049848973     -0.89448693043740      0.35923482504543
