26
Coordinates from ORCA-job TS E -38.497804440560
  C          -0.46850817071156      0.21493467040660     -1.04884706428931
  C           0.82331985635274     -2.16828567604275     -0.16140837859492
  C          -0.51987984128810     -2.10473786220505     -0.35480329016951
  C          -1.16584963433333     -0.94947601647133     -0.82207397737978
  C           0.26781310529814      0.63756923914504      0.94377731621339
  C           1.14796387852801     -0.32734277463041      1.34031109473948
  H          -1.14333699522406     -2.90768410173956      0.01621339685269
  H          -2.24430971912524     -0.91066169404038     -0.78690318499673
  C          -1.15834570805529      1.47016449492134     -1.39294345301169
  H           1.25098170120371     -3.03853351838111      0.31136184991223
  H           0.55445184513250      0.18982472574848     -1.39136715686508
  H           1.50616957476437     -1.54867854645031     -0.71238113366378
  H          -0.72004115449601      0.64585728208488      1.36421685004087
  H           0.87777896494155     -1.10402541525341      2.04232975598771
  H           0.66273472139353      1.56914298069897      0.57932101943045
  O           2.47876622373870     -0.14366194126225      1.10454145430155
  O          -0.64018356664342      2.40290874689317     -1.95961445256313
  O          -2.44077825236697      1.49058254036787     -0.98187051510061
  C          -3.16086939996263      2.67667124358734     -1.27309811005150
  H          -4.15693977003783      2.53867345165689     -0.85994124122826
  H          -3.21209778736936      2.83605786575369     -2.35241483144091
  H          -2.67171090633075      3.54000402597783     -0.81651422204822
  C           3.35094280167694     -1.07613856651926      1.69172011617609
  H           4.36011007811798     -0.72584398523978      1.48269767492440
  H           3.21796244090760     -2.07417906552718      1.26224979272231
  H           3.20385571388877     -1.13314210347932      2.77544069010226
