19
Coordinates from ORCA-job NEB E -41.051335215750
  C           0.92178362590311     -0.59673536578069      0.59617192401585
  C          -0.35423683567488     -0.58700700931613      1.15622214476979
  Br          2.27311604668761      0.47063680218084      1.40783226548818
  H           1.33577275059342     -1.53011985977657      0.23819770542950
  C          -1.20242903551703     -1.85110473269622      0.95229044156890
  C           0.56680681585342      0.49811592378800     -1.15450352524251
  C          -0.03184702664956      1.61811011380652     -0.54611840328029
  C          -1.27368716689955      1.53824809673193      0.04870418337145
  O          -0.91851464676937      0.46197595748111      1.55121001500142
  N           1.77373548979508      0.62047860192952     -1.77359530859081
  H          -0.07644129528274     -0.26133033262930     -1.58250486812441
  H           0.61884518397582      2.44141868772604     -0.28365886496868
  H          -2.01595434201539      0.85933756181337     -0.34436890213401
  H          -1.66444118062113      2.39623763275793      0.56999979323098
  Cl         -1.11233435016276     -2.48516952889907     -0.71337533436556
  Cl         -0.57235436953446     -3.11710110608446      2.04301221441274
  Cl         -2.89366281070670     -1.53619420973613      1.34239938318668
  H           2.42656117393616      1.27535422893593     -1.36679276550512
  H           2.19928197308893     -0.21515146223261     -2.14112209826410
