25
Coordinates from ORCA-job NEB_product E -36.407933532420
  C           0.38586850111224      0.57589924936120     -0.38859694907660
  C           0.45720950800312     -0.76888504830657     -1.11700596704414
  O           1.51921355344192      0.70883023080769      0.43592801521337
  H          -0.53844183618676      0.61010376268983      0.20652542150164
  C           1.83931153557820     -1.19653280942161     -1.50094678551304
  C           0.29160769889914      1.71299438547954     -1.44569224835930
  C          -0.51224143687199      1.26930069094633     -2.63677989869201
  C          -0.02228509764991      1.14247912997676     -3.85517718873568
  O          -0.53680665138305     -1.40317597199653     -1.35741117556306
  O          -0.30298373859330      2.82760317263389     -0.80132430487451
  H           1.31849098763204      1.97015360978005     -1.75782290939299
  H          -1.55161194204948      1.06297416937038     -2.42460410185871
  H           1.01262298807784      1.35018810574300     -4.07762158471542
  H          -0.63046131591234      0.81588200953949     -4.68063924230497
  C           1.38225865092662      1.65819715443446      1.46937605257671
  H           1.21306783885289      2.66307548796447      1.07558655127502
  H           2.31683315799470      1.63090741251710      2.02694747007818
  H           0.55074610754132      1.39515431927452      2.13287795018446
  H           1.81707034083207     -2.17905659104847     -1.96340050378995
  H           2.46374877702271     -1.20157252068375     -0.61106849180560
  H           2.25795456771502     -0.46847689973878     -2.19179424921752
  C          -0.30231605475095      3.99539979783218     -1.58403257426309
  H           0.72083188093402      4.29564809626803     -1.84384579330738
  H          -0.76548751801666      4.77000694554764     -0.97621349139037
  H          -0.87450050314942      3.86180211102915     -2.50836400092504
