26
Coordinates from ORCA-job NEB E -43.531532361260
  C          -0.08886070042260      0.42749146693589      0.65922460604301
  C          -1.37901395687856     -0.11170710724316      0.71874642323007
  C           0.05706693136139      1.87877018172825      0.23948814629162
  H           0.55615217780499      0.16856117564053      1.49301534466454
  C          -1.67606384110704     -1.18225131755015      1.75970528981101
  C           0.68601576300439     -0.54816139744357     -0.91023890802129
  C          -0.36929287015136     -1.26949558178961     -1.46524581323388
  C          -1.55718743638286     -0.56716819737216     -1.76951700724002
  O          -2.17649477672637     -0.05774192853285     -0.28982671537088
  C           1.90518631949279     -1.27113913029259     -0.41142196529444
  H           0.91057846823206      0.38354127164814     -1.41358615981202
  H          -0.45721745987563     -2.32020136661208     -1.22187283301326
  H          -2.39743976422985     -1.13275007994446     -2.15038132212183
  H          -1.44658821345744      0.40090034690605     -2.24713807020070
  C           1.49620701100029      2.37880145442392      0.25927318580320
  H          -0.51261491784922      2.46741547983738      0.96540402458137
  H          -0.40108805220714      2.04988242405301     -0.73526824265231
  H           1.93568688340624      2.22006896189027      1.24139541995128
  H           1.51781082028565      3.44465094970251      0.04506970416852
  H           2.11599099706653      1.87504758226989     -0.47799966508587
  Cl         -0.68871076177204     -2.66376690262048      1.53138520864467
  Cl         -1.31052610888592     -0.55423480780209      3.38064268271578
  Cl         -3.37821511567648     -1.65000579917908      1.69540583619001
  H           1.63243010085262     -2.14613069442847      0.17124662700105
  H           2.52712154341174     -0.61987755976318      0.19674948624921
  H           2.49906695970381     -1.60049942446193     -1.26425528329883
