18
Coordinates from ORCA-job NEB E -34.250935901590
  C           0.89636711474105      1.24450455045955     -0.14975839903914
  C           0.06875529901536      1.79684007827155     -1.11612420608582
  Cl          2.48657616584859      0.72300723465177     -0.57499320555961
  H           0.80970134235437      1.61973161786969      0.85777645984619
  F           0.46730064870838      1.62404434478630     -2.41730934846283
  C          -0.25335869174015     -0.57151429758262      0.31518057664906
  C          -1.33761396006593     -0.43534682048544     -0.55029109910703
  C          -2.19857605489977      0.63542766791943     -0.41927448349342
  O          -1.10905665090459      2.12195168915806     -0.93201235596755
  O           0.62878125735618     -1.55476754956525      0.11388759630636
  H          -0.36122972125026     -0.21527049303480      1.33684153207809
  H          -1.27725948815382     -0.96176832179023     -1.49242206258328
  H          -2.37141257705878      1.06803683086619      0.55331073759205
  H          -2.99027905475087      0.77205668373655     -1.13639012591275
  C           1.46829959966479     -1.89103519474856      1.20124102292812
  H           2.04337283182660     -1.02784784710783      1.54351297195703
  H           2.14901546707209     -2.65568346360566      0.83393563545499
  H           0.88061647223675     -2.29236670979870      2.03288875339956
