18
Coordinates from ORCA-job NEB_product E -34.290184648480
  C           2.09601724085214     -2.04580050902969      1.83367975880387
  C           1.55690527141193     -0.80908562034965      1.17865075421584
  Cl          2.71342439560152     -3.09364529084370      0.51332475117947
  H           2.94945799989099     -1.77449674013122      2.46109370592294
  F           0.53871860936235     -1.09519111304083      0.33125733140261
  C           1.00901846476522     -2.71948854051016      2.72978932665403
  C           0.04392547743289     -3.54338683218624      1.92230868776516
  C          -1.25417852489241     -3.31146011468044      1.89760023767317
  O           1.89562188101230      0.31016026133903      1.32785492155431
  O           1.59772465874033     -3.38977876645036      3.81624552612281
  H           0.46363141987838     -1.89658168526696      3.21292245500476
  H           0.47513954464083     -4.35187929669436      1.35129951172006
  H          -1.70112168820162     -2.50554591821285      2.45589151543391
  H          -1.92304329334071     -3.91721786673339      1.31141600871903
  C           2.21594268579875     -4.63560336602532      3.55520283303655
  H           2.68430330090567     -4.92307597131890      4.49456434944003
  H           2.98096154459951     -4.55943295840282      2.77944166505908
  H           1.48225101154193     -5.39618967146215      3.27395666029236
