23
Coordinates from ORCA-job NEB E -47.299853927400
  C          -0.32317846519636     -0.40623857344688     -0.80817070651636
  C           2.20158650331626      0.08419947654717      0.05587290293333
  C          -0.40155861033386      0.59191403418774     -1.80984001156549
  H           1.31637174653366     -0.47852637563600     -0.41171812475269
  C           3.53684329609758     -0.33249575062134     -0.55732850942571
  C          -0.90839340200375     -0.19937517449547      0.53929756886438
  C          -2.36727426880741      0.18880734018223      0.53664367817996
  C          -2.84468113974535      1.33175293203880      0.98710664624023
  O           2.04649004707327      0.90155930656200      0.90172705296767
  C          -0.72541338984565     -1.45585310628706      1.39861108437906
  H          -0.34790557030623      0.64056031516364      0.98869574146519
  H          -3.02633862844209     -0.58425166995159      0.16421234681507
  H          -2.21128187665696      2.11214558154053      1.37500416186152
  H          -3.90170440715443      1.53590688259158      0.97780095581795
  Br         -0.80462217726946      2.61120019397881     -1.42018587772390
  Br          1.01372332330812      0.59547274221790     -3.12695786083648
  Br         -1.99474771281508     -0.29403769489481     -2.55788524104206
  F           4.54482412498836     -0.22431042657119      0.32703641394499
  F           3.48095085233569     -1.61968483094178     -0.95530997032607
  H           3.76629714994090      0.29487748949927     -1.43854618399250
  H           0.32689309880065     -1.71407815109385      1.48976866187519
  H          -1.24880377621520     -2.29702556744950      0.95107696010026
  H          -1.12807671760265     -1.28251897312020      2.39308831073649
