23
Coordinates from ORCA-job NEB_product E -47.421905240550
  C           1.18871139629477     -0.97413624034401      1.67824835927924
  C           2.53559937952564     -0.99249481502964      2.40072198200547
  C           1.23992665320420     -1.21396984628944      0.17690122464524
  H           0.85078967645489      0.06852044044413      1.77879545189564
  C           3.59685272789368     -2.07733914202723      2.06266327872576
  C           0.18257919998218     -1.81390786457849      2.53946222808102
  C          -1.14731423672570     -1.97576077062678      1.85846944925071
  C          -2.22046849643197     -1.27740638691299      2.17954931027898
  O           2.76534334187558     -0.20302245604440      3.26906738944650
  C           0.70260457872842     -3.17930762023137      2.99274013208621
  H           0.03254340324891     -1.20758267445837      3.44014831599810
  H          -1.20447057262095     -2.75019502839242      1.10578921216763
  H          -2.19639368041796     -0.51287618610957      2.93883356151051
  H          -3.16520942537322     -1.43717901638651      1.69092905932159
  Br         -0.30783779055343     -0.39105609683575     -0.70185707577520
  Br          2.83316613392391     -0.29985640445369     -0.56267406424745
  Br          1.29218455903979     -3.05985604577147     -0.43123315755874
  F           4.73476011160444     -1.47162732116162      1.66685556769588
  F           3.88916413719005     -2.75084385755710      3.19820013331187
  H           3.31321453670054     -2.81633673561596      1.30140783211805
  H           1.57626172642209     -3.07791629781530      3.63053219880745
  H           0.94081272578424     -3.83775688895112      2.16309071140576
  H          -0.07852008575009     -3.65969274485088      3.57835889954977
