23
Coordinates from ORCA-job NEB_reactant E -47.430826145750
  C           1.35689741166617     -0.55186179129252      0.05806137100009
  C           1.98856704071526     -1.43367342076094      0.85152059126022
  C           1.95257087483681      0.24116156363177     -1.03264063497781
  H           0.29870548387387     -0.39252375069493      0.20253268053510
  C           3.47726101415399     -1.75149458778507      0.77952405265328
  C          -0.86409977420813     -2.57010644565410      4.36190505190931
  C          -0.28017375554486     -2.94458073350917      3.23607328678092
  C           0.03949816457160     -2.01436956938634      2.10796734890056
  O           1.43033839971676     -2.14058448672543      1.82910405246856
  C          -1.19625039423869     -3.48774651892306      5.48597270047761
  H          -1.14673473534808     -1.53457596791384      4.50600943579415
  H           0.01916628864517     -3.96978161415921      3.07500330319011
  H          -0.19463109678776     -0.97742764151733      2.37903286550967
  H          -0.53277870614162     -2.29158300666037      1.21041945965576
  Br          0.61939567303485      1.43678135059959     -1.79695302014307
  Br          3.47225572012516      1.36792965760535     -0.45209610971441
  Br          2.60529568262753     -0.90638895711301     -2.52997693658922
  F           4.13274206684883     -1.08606955476090      1.75840267386474
  F           3.67682934547932     -3.06520613744645      1.00017932783424
  H           3.95141861516740     -1.50007676773849     -0.17942881803528
  H          -0.70453301439468     -3.15048265361795      6.39744166365733
  H          -0.88070049537276     -4.50435027375408      5.26915986679993
  H          -2.26983980942611     -3.48008869242352      5.67078578716819
