28
Coordinates from ORCA-job P E -30.585315912390
  C          -1.64366669798704      0.51058312655148     -2.25732597284683
  C          -0.32103836920617     -1.64353635814996     -1.26529768127034
  C          -1.76178066436776     -1.80976740683555     -1.63054623534545
  C          -2.40724902551629     -0.76610707381540     -2.12519187031796
  C          -0.90845821849072      0.81140349331910     -0.94215627399624
  C          -0.12755153138327     -0.39575229048926     -0.37736508485406
  H          -2.23116414377802     -2.77012803547480     -1.48173743175396
  H          -3.44671898021443     -0.79841686417850     -2.41219422941493
  H          -2.29831605655587      1.34557881168358     -2.50995338171295
  H           0.04066836046877     -2.52906157226641     -0.74575102128159
  H          -0.90529009775256      0.40773440164718     -3.05909977068546
  H           0.26011209847956     -1.52351131131663     -2.18377088307074
  H          -1.65145565289470      1.12739303756570     -0.20753692676164
  H          -0.57012935688795     -0.64710810688495      0.59364209829813
  H          -0.24663251322835      1.65915474598988     -1.11316026978809
  C           1.36665572860631     -0.08374438037907     -0.09503437813054
  C           1.45443929457659      1.03507339384522      0.95131815982469
  C           2.05854458910087     -1.31926397123986      0.49593556367534
  C           2.13031468895736      0.34049227330907     -1.35214884737128
  H           0.93520248290423      0.74419500442579      1.86198063375757
  H           1.01431198799762      1.96034582229577      0.59064088309599
  H           2.49452685604233      1.23411895624878      1.20129486683196
  H           1.48952287611747     -1.71650754417794      1.33381636478086
  H           3.04975284103604     -1.05169521440800      0.85644394114099
  H           2.17701272870521     -2.10238978357942     -0.24776375902571
  H           1.69066666585812      1.22091425971162     -1.81278784755333
  H           2.14820641119627     -0.45913219424051     -2.08832766846694
  H           3.16003369821638      0.57728478084311     -1.09222297775748
