28
Coordinates from ORCA-job TS E -30.474029960180
  C          -1.78110196800272      0.50249258504926     -1.92313351228797
  C          -0.72962610593237     -1.84557475694995     -0.66777634607930
  C          -2.04360876357457     -1.70437331877999     -0.95389268915141
  C          -2.56427421424331     -0.56590755375236     -1.60855720509580
  C          -1.18021177425670      1.09264947739073      0.09570158483146
  C          -0.38137005112789      0.15273523986598      0.66928950938386
  H          -2.75582550513507     -2.39524005748848     -0.52154780811309
  H          -3.64048789976956     -0.45657430163255     -1.63493000091713
  H          -2.23572988318496      1.39944918265911     -2.31465659249319
  H          -0.39398724845597     -2.66904297157794     -0.05980245800758
  H          -0.74052544784683      0.38071121252996     -2.16037588862352
  H           0.02506463339932     -1.33448669463250     -1.23111229380270
  H          -2.21152143648005      1.16995408865313      0.39295150238175
  H          -0.81097387444486     -0.52292077556494      1.39300048096177
  H          -0.75757271425030      1.97887375446662     -0.34506967969876
  C           1.12785428955959      0.28953339309402      0.75145808479688
  C           1.39524838899186      1.34557197484207      1.84166842727825
  C           1.78922589253312     -1.01889344925793      1.19394026468841
  C           1.77628131825201      0.76412527970774     -0.55157987460285
  H           0.95278957360046      1.03604814776690      2.78589734562483
  H           0.96386967895747      2.30331242327009      1.56148313986658
  H           2.46543063196563      1.47659684841811      1.98909513012271
  H           1.30360473047733     -1.41179939550353      2.08443802914616
  H           2.83815110031289     -0.84577519239233      1.42735829223687
  H           1.73937274924163     -1.77099196891855      0.41249365827657
  H           1.35147918719426      1.70705560577337     -0.88459972351828
  H           1.65516412973569      0.03031041767436     -1.34498579922011
  H           2.84328058248388      0.91216080528960     -0.39675557798442
