17
Coordinates from ORCA-job NEB E -33.496598162240
  C           1.06523519923281      0.30248923065423     -0.33461763708604
  C           0.28681325341669      1.44028629269206     -0.11346000752208
  C           0.83194274468654     -0.43752515800395     -1.63332604067641
  H           2.11437429378601      0.36201176949961     -0.06279110495302
  Cl          0.88481650328466      2.59681988523174      1.07210265010999
  C           0.23416757680253     -0.81427362186381      1.04110102796405
  C          -1.11218324083152     -0.78722818795469      0.70479246312909
  C          -1.75760587670508      0.48695564857300      0.74231823497878
  O          -0.97656413174623      1.42547265379299     -0.31526323945364
  I           1.24224306680151     -2.68363920889748      1.06665953955119
  H           0.57539625454457     -0.21431773098959      1.87529499707037
  H          -1.52124261122975     -1.55840031070898      0.06984471717086
  H          -1.62294420848174      1.06463700619450      1.65462384071275
  H          -2.77810205049803      0.51585077071925      0.37946274150521
  F           1.59082442257382      0.14875628201787     -2.61428424358598
  H          -0.21230586255764     -0.36637438689636     -1.95203612605947
  H           1.15513466692085     -1.48152093406038     -1.58042181285563
