17
Coordinates from ORCA-job NEB_product E -33.539904459820
  C           1.68211117289983     -1.11380459889669      1.18698311538085
  C           1.01790567555112      0.23065312035578      1.02996579945482
  C           1.35425142599153     -1.94238194160892     -0.06117227793914
  H           2.76450748803571     -0.96517714737033      1.25629323463488
  Cl          1.64600260684381      1.42658367997784      2.16150328009162
  C           1.18393494812460     -1.72677713609784      2.51189915216227
  C          -0.18908502798805     -2.29334305491085      2.43648848184903
  C          -1.20641603408945     -1.80251742289710      3.12071975838159
  O           0.15619502520589      0.52248582794335      0.27117855355211
  I           2.55819053984168     -3.27360948268349      3.21332111715881
  H           1.24038884133942     -0.96154929277689      3.28762676470763
  H          -0.31265457562265     -3.16106495726497      1.80395757788153
  H          -1.09811097643827     -0.94983748426370      3.77146144851942
  H          -2.19045638176279     -2.23196374770974      3.05468201290126
  F           1.86848259391379     -3.20241413249933      0.03570465835661
  H           1.79919022079276     -1.47879683065987     -0.94750545534948
  H           0.27296245736106     -2.03448539863725     -0.20020722174382
