19
Coordinates from ORCA-job NEB E -33.617918585140
  C          -0.27311802436767      0.80111454441136      0.08500346675762
  C           0.19537306352304      0.09685822939059      1.20400638017293
  O           0.56930011251712      0.95445149040798     -1.00852986089596
  H          -0.94362000323130      1.64924101356353      0.25525284617813
  O          -0.45743899484246      0.20192603341540      2.39378319605666
  C          -1.39019041823656     -0.65719057087557     -0.75232260334158
  C          -0.99200606090334     -1.86215059326586     -0.18497135124483
  C           0.39831526371328     -2.07014754295297     -0.08919417752124
  O           0.94063124022430     -0.92540687209902      1.06359357483028
  Br         -3.21813272193146     -0.14380839778666     -0.55497055921216
  H          -1.00668173143000     -0.35669081724304     -1.71833283643595
  H          -1.62461991266392     -2.31212261603891      0.56928447824823
  H           1.00162978951218     -1.74820796252857     -0.93048165738320
  H           0.74692919248461     -2.97571232625413      0.38644111085440
  C           1.58436747338418      1.91757578636828     -0.80619136488457
  H           2.13797182541562      1.97106492898061     -1.74110038971984
  H           2.25570315950608      1.61940439685208      0.00509001878703
  H           1.15485584383459      2.89960942396146     -0.57756990324548
  H          -1.07926909650828      0.94019185169344      2.40120963199954
