19
Coordinates from ORCA-job NEB_reactant E -33.650631408860
  C           1.30992459890987      0.16906177204632     -0.23085918529925
  C           0.97904025032675     -1.11178528916011     -0.05587299039025
  O           1.96529263521967      0.60176532998407     -1.36305362699174
  H           1.10510852259442      0.90485424288569      0.53551729976651
  O           0.31902235486058     -1.56033777956337      1.06356562735479
  C          -1.35363161469860     -3.53968956348084     -2.54829761217290
  C          -0.87007956009012     -3.01395461869451     -1.43928271655588
  C           0.53172566274580     -3.25531507094853     -0.96279669692203
  O           1.30280070850190     -2.06503869220493     -0.96378300038958
  Br         -3.12070744472116     -3.22340858935198     -3.13928030316406
  H          -0.80229818736449     -4.19959214135389     -3.19879384340591
  H          -1.46612002967829     -2.35044302222360     -0.82877035986184
  H           1.06488234405410     -3.92941394418416     -1.63636214319979
  H           0.50404068545515     -3.68622036989456      0.04623754967166
  C           2.19875950844449      1.98529822039286     -1.40533959933926
  H           2.72604961110416      2.17605531205152     -2.33801613853671
  H           2.82095142302793      2.31520060261959     -0.56472083390399
  H           1.26094651842776      2.55361650373749     -1.39813382588046
  H           0.22209201288009     -0.83875290265706      1.69184239922067
