19
Coordinates from ORCA-job NEB_product E -33.686280848200
  C           0.52982390197080     -0.51182496225377     -1.16299320291151
  C           1.44861236361541     -0.93964387831830     -0.01466818165413
  O           1.21213137030071      0.17251005550627     -2.17416521303583
  H          -0.28454756992477      0.09972092943039     -0.73798306729835
  O           0.78240968429981     -0.97793142111678      1.14307571719495
  C          -0.03371380317680     -1.79243120198665     -1.78362075500211
  C          -0.73679651292473     -2.66351324246528     -0.80491977901013
  C          -0.43569684913083     -3.93554993634762     -0.61881600199371
  O           2.60581772007298     -1.22785042000689     -0.12119080224795
  Br         -1.30028475755013     -1.25554259330646     -3.19066998593016
  H           0.77090846437865     -2.31493035555057     -2.30397331416097
  H          -1.53700398476356     -2.18938474306288     -0.25270290367080
  H           0.35345317086590     -4.41986392006498     -1.17044276124902
  H          -0.96671309163783     -4.54203250604832      0.09369295024847
  C           1.67065399317580      1.45192075368019     -1.80632084442680
  H           2.10364770691413      1.88235744690130     -2.70606958039356
  H           2.43456415238599      1.39449272153440     -1.02444635650608
  H           0.84281424393569      2.08165161217129     -1.45903959947873
  H           1.35791979719279     -1.28515433869535      1.86315368152642
