19
Coordinates from ORCA-job NEB_product E -48.394566073770
  C           2.79563059741126      1.57438247676773      0.38783061941698
  C           1.29475168614513      1.56903050746427      0.21519667606844
  N           3.25870709485370      0.14379316851325      0.53549229134505
  H           3.27793777285386      1.96642077193293     -0.51765387891183
  I           0.55726140148023      3.49079299196311     -0.44743918446652
  C           3.18342163960798      2.44278879143829      1.60596440624305
  C           2.50546856487580      2.01983026909069      2.88398713757259
  C           1.63811994290243      2.78903378320112      3.51358619348265
  O           0.55257003836082      0.67454261910801      0.38850577956315
  C           4.70628774976655      2.44250634721975      1.78744369976051
  H           2.91518946217434      3.48248683592510      1.37590537434118
  H           2.76754736008922      1.04058780487840      3.25717665961757
  H           1.36739973353938      3.76891094495981      3.15374273571524
  H           1.16602020978802      2.46454523420647      4.42328177959823
  O           3.98232215253604     -0.24928616927170     -0.33786256437482
  O           2.85527434963710     -0.47295416994026      1.47916699422204
  F           5.19419440727563      1.24344325622675      2.11339366688705
  F           5.33235478110772      2.82562089428806      0.66416384049142
  F           5.07104105559477      3.29462364202822      2.74731777342800
