19
Coordinates from ORCA-job NEB_reactant E -48.386703928480
  C           2.07886119378645      0.21631958741279      0.35054465733364
  C           1.29373889414937      1.24144088463078     -0.02486270897948
  N           2.53350222143023     -0.09517101800448      1.65636923354966
  H           2.42827805562918     -0.48732716225618     -0.38911241766198
  I           0.61503522642345      1.26282353090721     -2.02972669009150
  C           3.79645834023509      2.78211753116899      2.55492113180597
  C           2.91586980862077      3.05981251957028      1.60774471213883
  C           1.44208770163492      2.84900957053960      1.75702583998779
  O           0.85441823314918      2.32881647358698      0.56508560422572
  C           5.25851476558617      3.06718072069564      2.39047335410613
  H           3.52481091820664      2.36408305176280      3.51272090642907
  H           3.23674191154335      3.46781124375392      0.65662017087269
  H           0.94253109300194      3.81445439183201      1.88877189110097
  H           1.22408662784160      2.19963344063635      2.61239128730492
  O           3.55007140020414     -0.74834700138627      1.73509287125537
  O           1.87001668712838      0.27080729208596      2.61301731066988
  F           5.61853674625848      3.21287059339594      1.10650212818433
  F           5.60872417082458      4.20881369230972      3.01288585433288
  F           6.02441600434607      2.10235065735798      2.90553486343508
