17
Coordinates from ORCA-job NEB E -34.583663120490
  C           1.08111941302833     -0.36244427825456     -0.72905845459261
  C          -0.21300137356943     -0.90763150905593     -0.60765039337467
  F           2.09112366299202     -1.00798128799108     -0.10809563140440
  H           1.42061994042659      0.02204138746617     -1.68784295597243
  C          -1.27676887155077     -0.49397844817400     -1.60362945298331
  C           0.91345541904545      1.14885546510242      0.38713645120721
  C           0.55755921205480      0.56602458659190      1.61044376668391
  C          -0.67561844411746     -0.12610697748385      1.67473647427002
  O          -0.59671691406895     -1.33955392940123      0.55118881137770
  F           2.12507803841125      1.73008835317934      0.30432975095121
  H           0.19457344358726      1.73054774443676     -0.18781522125739
  H           1.36353244667082      0.27538121084793      2.26739753735213
  H          -1.55078237549685      0.39947616743848      1.30186973785974
  H          -0.87173868863737     -0.67824286216043      2.58416876141231
  F          -0.82782021004293      0.49121336759024     -2.44538574948835
  H          -2.15994501679630     -0.10526080774525     -1.08148345039106
  H          -1.57466968193645     -1.34242818238691     -2.23030998165000
