17
Coordinates from ORCA-job NEB_product E -34.617574249520
  C           1.95110949021255      1.84264808496118      0.14617378670692
  C           0.69416069724375      2.09776297235012     -0.70036998353946
  F           1.62324829512612      1.05433106801490      1.21615140876651
  H           2.72958258858109      1.31710929932281     -0.42048555889691
  C           1.00294309384202      2.26694663983313     -2.17646813284747
  C           2.50123782406557      3.18555114617844      0.68776792978995
  C           3.68422888209609      2.95616046523425      1.57674194942363
  C           3.61096245959973      2.95504093059598      2.89344425698305
  O          -0.39536645472634      2.17931988868563     -0.21851121089141
  F           2.87000039674560      3.94340718872705     -0.40537028735956
  H           1.69866799356515      3.72581266295794      1.20365929658095
  H           4.60959510127137      2.76717045894380      1.05150634784437
  H           2.68374394533257      3.13681421919617      3.41017741297764
  H           4.47420023814858      2.75849771056589      3.50414703949311
  F          -0.11998708152537      2.57225618040918     -2.88367263835089
  H           1.40701667036424      1.33364513904168     -2.58727286201310
  H           1.72235586005725      3.08192594498185     -2.32131875466731
