18
Coordinates from ORCA-job NEB E -25.956426231720
  C          -0.42706820852901     -0.45751866848797     -0.62926850508011
  C           0.00231909487723      0.77300529528393     -1.15381529572775
  O           0.50061883089231     -1.26003046628512      0.05963963946473
  H          -1.04256250701276     -1.05598262835740     -1.30969921422113
  H          -0.55840124672817      1.20691939873253     -1.98018826539508
  C          -1.43523924909978      0.03763211250093      0.84297295579478
  C          -1.01259419621470      1.30608136970529      1.27463935180622
  C           0.41847540626919      1.52112860777040      1.12069332622032
  O           0.56666272082129      1.66582932567186     -0.36509816561598
  H          -2.48658025023339     -0.06554495820558      0.59517256052341
  H          -1.05742910713656     -0.80019501424103      1.41819806585584
  H          -1.63553964291417      2.16177530405413      1.04075874712503
  H           1.02416026341688      0.67266904272084      1.44359291580458
  H           0.80994215341563      2.46307502319627      1.49638375018338
  C           1.40319089668879     -1.90845473214339     -0.80343459369206
  H           2.02595315473438     -2.54113490692303     -0.17361688117326
  H           2.03146633197208     -1.18953426643863     -1.34138042628544
  H           0.87262555478077     -2.52971983855402     -1.53554996558749
