18
Coordinates from ORCA-job NEB_product E -26.006624901910
  C           0.53836544559703     -0.30542212500097      1.22683638109680
  C           1.61676513471487      0.68557690407957      0.84078453503460
  O           0.99675849219271     -1.61664194568449      1.43886021929476
  H          -0.21305309449295     -0.28993071826412      0.41227613294127
  H           1.20639498541722      1.70931031055491      0.71679891577905
  C          -0.12640694734327      0.17477867760336      2.53285386583048
  C          -0.90896801734955      1.43392403265749      2.34773967789841
  C          -0.72526302462368      2.53709357140848      3.04867926218551
  O           2.77944791708618      0.45014249798058      0.68389199670168
  H          -0.79134884290751     -0.62967907516388      2.85798053176381
  H           0.64336340424995      0.30220781832741      3.29473955293371
  H          -1.67921565958827      1.39221321174366      1.58761053870169
  H           0.03232859349205      2.60274568508331      3.81203625109295
  H          -1.32520498043505      3.41742045208177      2.89467193139252
  C           1.42499890762713     -2.28642301352460      0.27521981205773
  H           1.66256514372085     -3.30163905082646      0.58604531176718
  H           2.31394459153738     -1.82239050572651     -0.15908470102073
  H           0.62682795110492     -2.31238672732948     -0.47824021545144
