24
Coordinates from ORCA-job P E -41.835630367450
  C          -1.00471874191893      0.68746551371189     -2.23720061578997
  C          -0.67882595799951     -1.69917579947499     -0.45970440604439
  C          -1.18372650506693     -1.77353353327379     -1.86820197593137
  C          -1.32002821682152     -0.72386455430869     -2.65922518852005
  C          -0.85115862566182      0.80353692332159     -0.71879559005973
  C          -0.02402018694342     -0.35803800361328     -0.16814687327504
  H          -1.42892440590759     -2.76151764975799     -2.22713927706796
  H          -1.65912859136760     -0.83820621539467     -3.67807721971125
  C          -2.11851095940700      1.57516969020260     -2.77675348123920
  H          -1.51011301086702     -1.84919557848573      0.23499931074371
  H          -0.08679150578978      1.00623952822277     -2.74739108983328
  H           0.03683250879966     -2.50775869832575     -0.29346940646511
  H          -1.83569511397081      0.77434197933903     -0.25222691497712
  H           0.12643839926568     -0.21779730472904      0.90838662082950
  H          -0.37034043816181      1.74993909709623     -0.46553066813611
  N           1.34008011980197     -0.28457998141901     -0.76790567014576
  O          -2.06778923571737      2.16430213100829     -3.82157958112718
  O          -3.18711025876355      1.58258314454352     -1.97324615166884
  C          -4.30075680532467      2.34190557208113     -2.42592742439637
  H          -5.07159626771014      2.23166286544167     -1.66786239915039
  H          -4.65028047756823      1.96407234821849     -3.38844764127995
  H          -4.02099934393462      3.39069633994815     -2.54114060863065
  O           1.77175842758114     -1.24993841027708     -1.34342561310692
  O           1.92905519345390      0.75874059592464     -0.61569813501658
