24
Coordinates from ORCA-job TS E -41.732792313260
  C          -0.07097921767108      0.02413159420763     -0.86055302002267
  C           1.38518474842510     -2.29725095331680      0.07946292135503
  C           0.04581575087960     -2.29072827714872     -0.08305108610150
  C          -0.66941063300744     -1.17354125974616     -0.57909199172596
  C           0.52650040444111      0.61122017023726      1.16061804655110
  C           1.31094000171176     -0.35073927181982      1.71250603514463
  H          -0.54017460555069     -3.11130578857950      0.30799067422129
  H          -1.74918459314223     -1.21741735073604     -0.55937989971610
  C          -0.86161444821969      1.19916129663386     -1.29431790440761
  H           1.88053714562921     -3.10780646512980      0.58748171286888
  H           0.96963003676867      0.08108277977555     -1.14602551598586
  H           2.02491046358212     -1.60791946285051     -0.44247383587657
  H          -0.49286914971694      0.72139067470844      1.48497914533194
  H           0.96851899724339     -1.09239465693476      2.41456126439902
  H           1.00549568698582      1.46923086355896      0.71505736157507
  N           2.72054369032071     -0.30329374857652      1.56165778474496
  O          -0.41715866620135      2.11202628792330     -1.94214209518779
  O          -2.13348225710198      1.14746407046281     -0.86510791827208
  C          -2.95906898319245      2.23849654725247     -1.24727857139901
  H          -3.92856563722359      2.06178982211866     -0.78894023616388
  H          -3.05035524991155      2.28224035834626     -2.33427651507809
  H          -2.53135970286429      3.17912187960745     -0.89451050983272
  O           3.38036959339969     -1.01198989738513      2.29755357521741
  O           3.18577662441612      0.43703078739110      0.71528057836051
