20
Coordinates from ORCA-job NEB_reactant E -43.128533042910
  C           1.31604862105145     -0.07696300080548     -0.04461005744433
  C           1.67044376210824      1.09764203593246      0.53800625897429
  N           0.97219196656079     -1.17849828226787      0.63834714780057
  H           1.32507184353219     -0.12797559803860     -1.12402836709314
  N           2.02194457436598      2.20641855712610     -0.27096927933824
  C           2.84446052935599      3.29487537772947      4.52245235596617
  C           2.47452075404364      3.01990017824671      3.27854856383623
  C           2.74750979027943      1.72341569509213      2.59165138330185
  O           1.58441199344277      1.27978089513764      1.89397441878124
  N           2.56395524338427      4.56416175096624      5.12826532568424
  H           3.37904333641752      2.62235582603911      5.17691564690193
  H           1.94544304248193      3.76082296350057      2.69098213251653
  H           3.01558200723407      0.94502869537908      3.31639941560135
  H           3.58997892592658      1.86456684687345      1.90468899906527
  H           0.57311520217566     -1.96919556242429      0.16660215446677
  H           0.87382977600068     -1.10706206823851      1.63810856349796
  O           2.24614989062411      3.26732450543791      0.28747327735287
  O           2.09808285990157      2.02929356263033     -1.47678237483262
  O           1.93893235566178      5.38417072431492      4.49614520774480
  O           2.97838352545135      4.72083689736864      6.25782922721625
