17
Coordinates from ORCA-job NEB_product E -38.227431932940
  C           1.76693568007401     -1.35157475466293      0.79414893289699
  C           0.76182350189223     -0.23629434343811      0.86162117152471
  C           1.90405731160257     -1.84275859661251     -0.64967301949380
  H           2.75363625249319     -0.96865405607676      1.08138774440684
  Br          0.85229948930379      0.67705384803899      2.58500743131846
  C           1.36350905744157     -2.48853252242549      1.76423173438146
  C          -0.09463028600467     -2.83520262628934      1.66144415833806
  C          -0.96091957739929     -2.60812363439896      2.63034236630303
  O          -0.02467245646956      0.11356140936028      0.05946856157719
  H           1.97753157907346     -3.36283279126357      1.53466542719781
  H           1.59056497797813     -2.16558304572221      2.78195022137334
  H          -0.41327487099774     -3.28495666096352      0.73203786344752
  H          -0.66693832287903     -2.16041983822578      3.56617725697635
  H          -2.00043852713289     -2.86594118851479      2.52984359999503
  F           2.81935782910872     -2.82148636716995     -0.72838707109515
  F           0.78046557459195     -2.32657088550248     -1.17484068195601
  F           2.32889278732356     -0.86128394613287     -1.45602569719182
