17
Coordinates from ORCA-job NEB E -40.247755653180
  C          -0.01481474840182     -1.49970961032832     -0.25865743933312
  C          -0.77674904425698     -1.53895715090114      0.91806422125467
  Cl          1.67562870043312     -1.90189747310797     -0.10379717212141
  H          -0.45109610433064     -1.92298292517718     -1.15791863948712
  Br         -2.71177917642910     -1.64582484204426      0.59512628272361
  C          -0.04654087162877      0.45009740427104     -0.51152104780407
  C           0.42329970409327      0.91726535877062      0.72221954192012
  C          -0.35222925933070      0.67434874988881      1.87682612755729
  O          -0.41498238100391     -1.00274363055711      1.99378520578270
  C           0.69175739166229      0.82520093291811     -1.76209933372610
  H          -1.12222144796409      0.50453684661062     -0.68301387378903
  H           1.48147338559145      1.09992694516318      0.84345986000039
  H          -1.42042377366144      0.86457600066844      1.81421105540126
  H           0.07996083970716      0.94590511927712      2.83009715318833
  Br          0.12063457990216      2.66894060155780     -2.21557538493870
  Br          2.62261890559170      0.85488742084698     -1.61411222107502
  Br          0.21546330002628     -0.29356974785673     -3.28709433555380
