22
Coordinates from ORCA-job R E -36.849659129780
  C          -1.06735023517584     -0.00400974785090     -2.94580880888212
  C          -0.27922119291520     -2.77313955048352     -2.05854682823777
  C          -1.25122703324324     -2.03051936515189     -1.53981858682464
  C          -1.72246350812195     -0.76605003785343     -2.07172854912049
  C          -1.30575800259034      1.06443187899014      0.55533248195756
  C          -0.18349638003482      0.37246191519769      0.61029557269881
  H          -1.76918706512792     -2.37120580231158     -0.65394440622831
  H          -2.68055614874530     -0.42816775126111     -1.69981093521509
  C          -1.59469993928347      1.30216444688755     -3.43217799899323
  H           0.01636223155191     -3.70472188243994     -1.60821935901447
  H          -0.09627482489869     -0.24965856806297     -3.34477445853634
  H           0.24222912655639     -2.49100248478942     -2.95715915349311
  H          -2.15547414472651      0.82793036337450      1.17309319591607
  H          -0.09258049309594     -0.46646224372153      1.28924610803590
  H          -1.41802324154753      1.90689976197894     -0.10718152630533
  C           1.02744375846051      0.65831277025378     -0.21168826109748
  F          -1.60429614846270      1.37644761405061     -4.77715670540608
  F          -2.84333506396114      1.56979644640540     -3.02791496167178
  F          -0.83432701819675      2.33755723734727     -3.01588776318675
  H           0.84967803785249      1.48731678839894     -0.89169579004481
  H           1.30623683417281     -0.22436215891461     -0.78725417979924
  H           1.86789045153322      0.90830036995609      0.43541091344871
