22
Coordinates from ORCA-job TS E -36.835668044130
  C          -0.69004706357384      0.34307061208690     -1.22596370898731
  C           0.62628620307098     -1.84049882855157      0.04191988384588
  C          -0.68540920301006     -1.89190156210670     -0.29250514206628
  C          -1.33708040930913     -0.82133950643574     -0.94152540756544
  C          -0.13159928942733      0.96424368227621      0.91585281939448
  C           0.66217434935944      0.01330759741650      1.46705348132503
  H          -1.30951720350433     -2.67952702164647      0.10492147186831
  H          -2.41581657891333     -0.84706535501655     -1.00758899039065
  C          -1.45140595351449      1.50397990919096     -1.77141861766155
  H           1.06079203242894     -2.61966126451287      0.64636988373350
  H           0.36698766635577      0.39047405413222     -1.42198004868922
  H           1.32188983271292     -1.23366104642370     -0.50537102274906
  H          -1.18011424637520      1.01256340304726      1.15122614470580
  H           0.23861357800709     -0.69209721566794      2.16607466664866
  H           0.30436078055543      1.84920239416659      0.48348569742768
  C           2.15413362824560      0.16542735342144      1.50517298555334
  F          -1.77851892726046      1.34824704106583     -3.07438338168151
  F          -2.60965123355010      1.72766983308103     -1.12895006708232
  F          -0.75247771635505      2.65058256706249     -1.70796125228429
  H           2.51766093107851      0.70285390936582      0.63218604451131
  H           2.66303706414715     -0.79218154524220      1.57489161405758
  H           2.42570175883150      0.74631098929051      2.38849294608607
