28
Coordinates from ORCA-job P E -34.819412532910
  C          -1.20769024827569      0.26435214759037     -2.47509243059024
  C          -0.35576554532836     -1.61637069823995     -0.28602560729757
  C          -1.55814860665170     -1.82764796144197     -1.15245331897886
  C          -1.93123743544976     -1.00140123508265     -2.11469301382873
  C          -0.28517571971123      0.68162438426559     -1.32231016766803
  C           0.53368946317142     -0.50325142734667     -0.82471733252680
  H          -2.12208428665574     -2.72870177124869     -0.95397022154055
  H          -2.78992445586844     -1.25439600928537     -2.71819131405558
  C          -2.17940687711273      1.39018653359754     -2.92176422612818
  H          -0.66871798139905     -1.36256754635144      0.73121096718502
  H          -0.56594113328740      0.03554374323842     -3.33732423545398
  H           0.22452467333485     -2.54110566312918     -0.23071147155568
  H          -0.86819293015433      1.05535386074978     -0.48045162889965
  H           1.25924726824095     -0.18261938227975     -0.06402737725700
  H           0.39955292153267      1.46250486954927     -1.65256016568347
  F           1.30233048977907     -0.99654655863723     -1.86800364063279
  C          -3.28112095672353      1.61103959602838     -1.88207378223381
  C          -1.41759824745501      2.70403288815219     -3.13045909982835
  C          -2.81992503580625      1.00923292139562     -4.26195726362364
  H          -2.86412167142726      1.93632925111679     -0.93213518974797
  H          -3.84454847275881      0.69719560097710     -1.71184196953614
  H          -3.96926903087997      2.37973862722002     -2.22717577379106
  H          -1.07170869336587      3.11811787604490     -2.18733611652027
  H          -2.07129485716328      3.43905482834431     -3.59555833078059
  H          -0.56010476883511      2.55295530206821     -3.78263069774055
  H          -3.42059169101838      0.10785232014421     -4.18119884146040
  H          -2.05484329273065      0.84415917433720     -5.01757671008188
  H          -3.47029287800041      1.81098432822298     -4.60540103974324
