28
Coordinates from ORCA-job R E -34.722968882720
  C          -1.67771885166840     -0.07057616922568     -2.79867894442714
  C          -0.23439306020755     -2.42960276437659     -1.58589504670621
  C          -1.41457791187393     -1.94498151402922     -1.21463814602762
  C          -2.01416666354230     -0.70308138595542     -1.67703437194706
  C          -0.36939965287673      1.17456522122332      0.84385996790358
  C           0.52199164470482      0.51634711381565      0.13750826871811
  H          -2.00429493353106     -2.49678770882959     -0.49211239620758
  H          -2.80001971999157     -0.31558224140276     -1.04422045094748
  C          -2.27140416737057      1.19731188452522     -3.34575231361107
  H           0.13966846971261     -3.36379833811144     -1.20247465639897
  H          -0.90825919447799     -0.50278576880139     -3.42422687949979
  H           0.40968632970229     -1.90502223055676     -2.27144333567705
  H          -0.79515988029989      0.73823880604897      1.72610802331507
  H           0.90315238992836     -0.47210635673186      0.34674256810205
  H          -0.70004788708662      2.15774477352642      0.56103595282685
  F           1.07373781165852      1.03473563502777     -0.96970258367697
  C          -3.32058209561636      1.81413824203839     -2.42019014095588
  C          -1.13136935070308      2.20030295536199     -3.56377631372176
  C          -2.92384322815195      0.87080004102664     -4.69754778760462
  H          -2.88720051247188      2.06423062374747     -1.45445241743963
  H          -4.15519919291723      1.13468226868117     -2.26690962321438
  H          -3.70518473153925      2.72952052429952     -2.86599470292564
  H          -0.65918069999558      2.44300236744814     -2.61561215189343
  H          -1.51500287738381      3.11694914902934     -4.00726970287930
  H          -0.37532922880858      1.78700154048337     -4.22639800839087
  H          -3.73255713701000      0.15512408512592     -4.56572414224440
  H          -2.19410859286128      0.44230992682369     -5.38103440046940
  H          -3.33024707532100      1.77335931978775     -5.14916626399944
