28
Coordinates from ORCA-job TS E -34.707929400700
  C           0.01328380009904     -0.27931219353655     -0.31466092600078
  C           1.42234023597615     -2.46997437159309      0.91790862739123
  C           0.06626663073146     -2.41194829858187      0.85784304435917
  C          -0.62362440022911     -1.34424568839200      0.24786070582639
  C           1.07372102475691      0.38938971545314      1.63681844474975
  C           1.86805769931911     -0.60899941860682      2.08755531197252
  H          -0.51688364169151     -3.09995822157100      1.45583395027673
  H          -1.69384776877137     -1.30667879872440      0.39773762382035
  C          -0.72409616429065      0.87461408517695     -0.95906185605210
  H           1.90705525171105     -3.24897657168968      1.48474603317872
  H           1.02456178209285     -0.40678382490510     -0.66870854729416
  H           2.03874421073392     -2.00591032833640      0.16845940960914
  H           0.12450911144303      0.55479219722883      2.10519369062458
  H           1.68242782145060     -1.20428158610961      2.96690684111026
  H           1.49176023107905      1.17056270105064      1.03243174180026
  F           3.18233308392918     -0.60991920543907      1.75235470651254
  C          -1.77191935429073      1.49567857719836     -0.03142053113500
  C           0.25784487155004      1.96338231760385     -1.40226425397414
  C          -1.42507018459576      0.31727419896209     -2.21055696481652
  H          -1.30082973482920      1.93008449434003      0.84651896951590
  H          -2.49668346310940      0.75587403659059      0.29659837556322
  H          -2.30760727941475      2.28463247942044     -0.55512686119329
  H           0.72145383817919      2.44697059441824     -0.54597157320878
  H          -0.26397503288050      2.72814978573316     -1.97377002979509
  H           1.04099162874756      1.54523406191841     -2.03114399616589
  H          -2.15235361387226     -0.44258560042922     -1.93700806328398
  H          -0.69861101008891     -0.13245121200935     -2.88374703566255
  H          -1.93984957373500      1.11538607482940     -2.74132683772849
