21
Coordinates from ORCA-job NEB_product E -33.244306450780
  C           2.46187225670446     -0.72603266096819      1.11289131646091
  C           1.14158106026688     -0.31914682383712      1.68751376620380
  C           2.29202205239591     -1.01916659860610     -0.38420842277348
  H           3.17715744528352      0.09157742591257      1.24988511181133
  Cl          1.30140187326560      0.43209700007851      3.29202018121961
  C           3.02435823727628     -1.91721353350078      1.94150942776649
  C           2.31784010693798     -3.20346087911749      1.60655080597892
  C           1.23052357607105     -3.62371844111074      2.22408901878395
  O           0.06295188080080     -0.43611268493263      1.21551697170648
  O           4.41147375581149     -1.98887278754866      1.68867681707566
  H           2.86039373143310     -1.68119336389883      3.00586869461413
  H           2.77005351608959     -3.77881648117895      0.81016984823005
  H           0.77526627916457     -3.05699979766298      3.01977207555174
  H           0.74354779053653     -4.54460067315151      1.95463814009189
  C           3.62365817205335     -1.11812529072545     -1.11536784193779
  H           1.70048059490756     -0.21078080313748     -0.81988304901325
  H           1.72065019408188     -1.94020825657529     -0.50593383933539
  H           4.16428414531252     -0.17710382109369     -1.04810503023736
  H           3.45506130747081     -1.34473547140090     -2.16524776260883
  H           4.24572879417734     -1.89475851508375     -0.68264999173784
  H           4.78039322995879     -2.72012754246054      2.19499376214898
