17
Coordinates from ORCA-job NEB_product E -29.776299909840
  C           1.42734409505223     -1.27631352019296      2.16185538047196
  C           1.07787838761786     -0.13440595745740      1.26081622468357
  Br          0.60330267979796     -2.88130005077536      1.43524264717779
  H           2.50903215880159     -1.44036098119039      2.14229984172106
  F           1.84154613478445      0.95073810189156      1.59387636307563
  C           0.96716171591674     -0.97163240068377      3.60389839315974
  C          -0.51696853187560     -0.73735119886338      3.63489682994249
  C          -1.07208140539693      0.44128489755343      3.83923607778644
  O           0.29123070540378     -0.05062531502667      0.39289312404345
  C           1.36607477695955     -2.09984593992502      4.55128740942512
  H           1.48478766148497     -0.05138682838401      3.90211608341788
  H          -1.12584320233025     -1.61538356498464      3.46678597802416
  H          -0.48320155858571      1.32891849647776      4.00799200685154
  H          -2.14016447358359      0.56999507387908      3.84845403623779
  H           2.44390704479842     -2.24852204848336      4.54482315495883
  H           0.88292143409086     -3.03150611814947      4.26504014534335
  H           1.05707237706367     -1.84920264568540      5.56298630367918
