17
Coordinates from ORCA-job NEB_reactant E -29.755829392040
  C           2.25483223381959      0.08613573632363      0.42180760507119
  C           1.20944102131350      0.29738205290900      1.21510723710578
  Br          3.50214610433364     -1.24717284799996      0.85909328653749
  H           2.43691431357042      0.64342634697247     -0.47644940280433
  F           0.32377178380607      1.26103483649857      0.88302236857498
  C           0.56777966255489     -1.84979138309312      4.61902880760178
  C          -0.29837326545309     -0.90681572397648      4.29125476731563
  C          -0.20596841646978     -0.03329931118029      3.07825030614772
  O           0.95505114483271     -0.37051900863479      2.32852285449375
  C           0.45628027659666     -2.70771542047141      5.83158574985171
  H           1.42428797224062     -2.03587671653465      3.98681355762931
  H          -1.16428977102225     -0.69900706990840      4.90515139482051
  H          -0.15905300968552      1.02329309901926      3.37988900505177
  H          -1.10174331654622     -0.16335886779784      2.45352996472164
  H           0.40703911116780     -3.75672418335542      5.54225568371518
  H          -0.42890870519915     -2.45844102055004      6.41143402126624
  H           1.33809286014011     -2.58255051822055      6.45870279289964
