21
Coordinates from ORCA-job NEB E -46.511373032280
  C           0.37802733375726     -0.38768574926209      1.00401651273175
  C          -0.93822421542190      0.15885048534520      1.29402690034176
  N           1.51401467004307      0.35007323509934      1.32920276404757
  H           0.46438288455142     -1.44729712854128      1.24619939474105
  N          -2.02843532708131     -0.80943809481866      1.30039003690491
  C           0.25105922080478     -0.35435756522171     -0.78778719188722
  C          -0.07528040393142      0.99583154326241     -1.12390091780179
  C          -1.32048142508953      1.51640312888084     -0.77059467443136
  O          -1.22083623570084      1.34559285814001      0.97462316817243
  C           1.53477762568621     -0.88608504206584     -1.37613196380844
  H          -0.54500341057055     -1.08306678336053     -0.95740155387572
  H           0.74023524779149      1.68374298778949     -1.30063854441473
  H          -2.21566652821929      0.91782584148817     -0.89505331210430
  H          -1.48220379676465      2.57636503043975     -0.89848568134144
  H           2.16033087421642     -0.08217308733449      1.96780530979891
  H           1.34133123143277      1.32528125750475      1.52684325553947
  O          -1.73979938733687     -1.97827156317120      1.49123928604953
  O          -3.14666820927820     -0.37917157273908      1.11605443870391
  Br          1.24307810272693     -1.12639832978174     -3.31274318693652
  Br          3.05598429978085      0.29392467710418     -1.17313381415062
  Br          2.02937744860337     -2.62994612875752     -0.65453022627917
