18
Coordinates from ORCA-job NEB_reactant E -38.581120222190
  C           1.55994237617046      0.09222965460753     -0.06527461510747
  C           0.91484996674990     -0.69124810686641      0.82438479242233
  C           2.00454055314099     -0.41428926936034     -1.38364738145213
  H           1.76771553565734      1.12143270493975      0.17350564917410
  C           0.52729403914153     -0.11037039382648      2.06721651988277
  C          -0.04737288491478     -5.20972074750717      1.72547959946235
  C          -0.24491713976041     -4.11110010889664      1.02413195960973
  C          -0.04989374248910     -2.72727715744831      1.56110615312805
  O           0.63901035485242     -1.97450830267125      0.56671896921816
  H          -0.21613645048049     -6.18542591413819      1.30534775764290
  H           0.27928448326798     -5.17897421552978      2.75194867537300
  H          -0.56547550376993     -4.14537506776524     -0.00695500989276
  H           0.52500290758861     -2.74338987158093      2.49542808808389
  H          -1.02708467029290     -2.26203491280093      1.76234396521963
  Cl          0.61481592279258     -1.01023808565681     -2.34050688329560
  Cl          2.80926203360660      0.86379586456070     -2.30882614222081
  Cl          3.15012487753765     -1.77795732711273     -1.19038419388938
  N           0.21303734120155      0.35035125705325      3.06758209664125
