18
Coordinates from ORCA-job NEB_product E -38.583229589010
  C           1.10991602025820     -1.51032403838512      0.77350277655525
  C           2.33074910889200     -1.20272753483648      1.65567558138432
  C           1.52596472008438     -1.24327662034758     -0.67321188371723
  H           0.29446460369989     -0.81870542380779      1.00996062394829
  C           2.18825788187525      0.05248888080762      2.37115827825822
  C           0.66661539135923     -2.96104415771029      1.05122901888218
  C          -0.48972899775852     -3.39476759993711      0.20232212444818
  C          -1.74701418653206     -3.32904456305716      0.59786037886704
  O           3.28369794637121     -1.92145155260730      1.75795215646262
  H           1.52122624310747     -3.62034881466003      0.89181757348490
  H           0.38368309104008     -3.01049643910524      2.10566913995664
  H          -0.24045711594574     -3.78028458103241     -0.77529570162977
  H          -2.01873955106250     -2.95255955864608      1.57091268617915
  H          -2.55801292964111     -3.65118285545273     -0.03127427438985
  Cl          0.11005658979264     -1.09881783077996     -1.73533953944244
  Cl          2.40058305223581      0.33275849262590     -0.72605075174600
  Cl          2.60543701089903     -2.49022522330620     -1.30676660085520
  N           2.04410112132476      1.04200942023797      2.92717841335370
