26
Coordinates from ORCA-job P E -37.039384447390
  C          -1.04659590266212      0.43627831611321     -2.48273867348603
  C          -0.53179173732874     -1.66860650627987     -0.42109580138500
  C          -1.37134189449190     -1.88573317143410     -1.64342395358926
  C          -1.60157025396325     -0.95717652810559     -2.55532239089488
  C          -0.62960581636180      0.77304205078359     -1.04368472445073
  C           0.22565001311867     -0.34507857027544     -0.46250852313463
  H          -1.79024259295698     -2.87698520477412     -1.74756769065005
  H          -2.19972498636653     -1.17818351429691     -3.42822002371049
  C          -2.03929898327222      1.45629792861388     -2.97981172051476
  H          -1.16765890254077     -1.68621143437443      0.46922845197502
  H          -0.15100142434913      0.47744250475536     -3.11615108649825
  H           0.18916027684995     -2.48468464952099     -0.32397319952859
  H          -1.51593964329649      0.88772054078759     -0.41780857365997
  H           0.59481643736642     -0.07858536598609      0.53742721961165
  H          -0.07319466055560      1.71193125371798     -1.03157465334516
  F           1.36405701071721     -0.49436824723383     -1.23889837365569
  C          -3.36735772275867      1.39235106703555     -2.57537541094057
  C          -4.28109374661714      2.33634951078776     -3.00705464867888
  C          -3.87729365232413      3.36048269426150     -3.84709592278055
  C          -2.55614896979202      3.43377797572319     -4.25276156694011
  C          -1.64363572607700      2.48681808661328     -3.82122130523182
  H          -3.68477203391840      0.59163909776630     -1.92195959530680
  H          -5.31138913939677      2.27332830287040     -2.68785003759865
  H          -4.59046420697984      4.09790433439153     -4.18495063648030
  H          -2.23502577253693      4.22982945939489     -4.90874656405335
  H          -0.61339596950580      2.54755006866536     -4.14306059507214
