26
Coordinates from ORCA-job R E -36.945854845750
  C          -1.49228060374131     -0.28271791713257     -2.76049471754679
  C           0.03760295006931     -2.68113566009906     -1.75091024194257
  C          -1.28563109418470     -2.54279565564097     -1.77714743336815
  C          -2.00768180477878     -1.32971929076623     -2.09957023308225
  C          -1.02087050012116      2.12296754862621     -0.18582760463117
  C          -0.25514456119086      1.05523105226009     -0.21648311555237
  H          -1.90711239543955     -3.39056223076133     -1.51429328283177
  H          -3.03992191042659     -1.31105721321573     -1.77648108697736
  C          -2.15959332631321      0.96730515629921     -3.06883254921167
  H           0.50010085048543     -3.61954445493368     -1.49785374838751
  H          -0.46778478004413     -0.34180402465635     -3.10348886235613
  H           0.70553853984044     -1.86434062407048     -1.96478110830038
  H          -1.90997451431913      2.13774251179506      0.41417654205083
  H          -0.41598986664449      0.13034633106594      0.31793560892802
  H          -0.78737349297343      2.99981190109323     -0.76248824930542
  F           0.86153018068501      1.00486873599763     -0.96020626306709
  C          -3.49770221392606      1.22410074941323     -2.75969485864754
  C          -4.07107227832272      2.44420172366360     -3.05793329117764
  C          -3.32599777229412      3.43942502376962     -3.67004983041550
  C          -1.99857951229986      3.20094121088145     -3.98645070550437
  C          -1.42421576285154      1.98053649354460     -3.69153412134235
  H          -4.09750096766812      0.46210202133300     -2.28600881888419
  H          -5.10803991999853      2.62298571869872     -2.81167140943702
  H          -3.77810705775398      4.39280536851709     -3.90041945062929
  H          -1.41026296396193      3.97076389589291     -4.46500450379769
  H          -0.38646522182600      1.80257162842482     -3.93550666458261
