20
Coordinates from ORCA-job NEB E -52.690192464700
  C          -0.11537285933988      1.23184017653355     -0.11744340754619
  C           0.17622196378615      1.26736573186161      1.25736163619198
  C           1.02262764385299      1.44052397901724     -1.07049729691215
  H          -1.00078293723595      1.78858792969145     -0.42189014079221
  F          -0.87528023817920      1.66257352651048      2.03843843096709
  C          -0.79526736498015     -0.67268185991221     -0.02538233623241
  C           0.24597836836100     -1.38935918504718      0.56666888470429
  C           0.60765195614342     -1.08122246026784      1.89428744281376
  O           1.05612369742731      0.57662535349064      1.81272658674857
  C          -1.27780301796159     -1.12188073107341     -1.38205126505370
  H          -1.64746282037164     -0.39405319362918      0.59001844010431
  H           0.94858152712990     -1.91199079878378     -0.06499855775064
  H           1.50985997604486     -1.53081725455036      2.28445212030356
  H          -0.18234030119014     -0.96192245307892      2.62751684105406
  Br          1.65529272347921      3.31390219561842     -0.79272455481842
  Br          2.56634522795317      0.30908122284293     -0.80740371238728
  Br          0.49008305688674      1.34279073774333     -2.93821707227458
  F          -0.29650225069032     -1.49793231315403     -2.20380762264445
  F          -2.00198906447160     -0.18516408687331     -2.00728746866236
  F          -2.08596528664428     -2.18626651693941     -1.23976694781323
