20
Coordinates from ORCA-job NEB_product E -52.737395739920
  C           0.28336895937105     -1.48327106833362     -0.98148826745468
  C           0.14086721098766     -0.58850088386629      0.23688863434321
  C           1.73699643859258     -1.47888211025753     -1.43877260619813
  H          -0.31402224367656     -1.01821740647343     -1.78065843689936
  F          -1.16763876985406     -0.34412991875751      0.47189402114210
  C          -0.38340549931242     -2.85192480130936     -0.62218079460516
  C           0.52972600321346     -4.03262646929645     -0.42331215358535
  C           0.62647147813018     -4.66959848778173      0.72867618900963
  O           0.96643137818231     -0.14760239357474      0.94721393688306
  C          -1.43359707392174     -3.22400712444864     -1.67785773792825
  H          -0.96445205576797     -2.71437611781975      0.29932869539832
  H           1.05572769990125     -4.38665887826100     -1.29768789649993
  H           1.25969800994705     -5.53166820349014      0.83474531568484
  H           0.09541926482686     -4.35055985906516      1.61028105563577
  Br          2.23487225214146      0.37683683422088     -1.85411964747829
  Br          2.97396145306909     -2.12964912229111     -0.09452120103724
  Br          2.00546066388942     -2.49305312177985     -3.07921925414067
  F          -0.90949584168598     -3.50942948586725     -2.87245494119931
  F          -2.31206871261268     -2.22929876052447     -1.87731568993165
  F          -2.13482061542096     -4.29098262102286     -1.28923922113890
