20
Coordinates from ORCA-job NEB_reactant E -52.732111918450
  C           1.69837947526745      0.10023029613284      0.03547552892729
  C           0.95135149023584     -0.92907648636517      0.44569268343239
  C           2.06589304283262      0.21707229518403     -1.38586890911475
  H           2.03594817713068      0.84115273773821      0.73915868314613
  F           0.60624501366198     -1.05449895268228      1.73087124706925
  C          -0.85925100178523     -5.09336613111707     -0.92174984752276
  C          -0.69670770831936     -3.78420895748818     -1.00541590424489
  C          -0.29387121393778     -2.92362095038422      0.14571409281058
  O           0.51166494062303     -1.86951270134197     -0.37207318843916
  C          -1.30655959295083     -5.93110672978907     -2.07994334600892
  H          -0.70098371262011     -5.65843918057553     -0.01538305594535
  H          -0.85807641686120     -3.25605479151277     -1.93545953730126
  H           0.26372963326800     -3.49094288750955      0.89939390805372
  H          -1.19181781875998     -2.49999018682138      0.61804543190454
  Br          3.11752186614174      1.81058187129288     -1.71243135711406
  Br          3.11299080437466     -1.34776641882941     -1.99501390465603
  Br          0.46994239057758      0.29239022096663     -2.54445587268146
  F          -0.43062286432759     -6.91189314471073     -2.34997922288483
  F          -1.47233290138882     -5.23560442991467     -3.20895116025324
  F          -2.48044360316266     -6.53654547227260     -1.82342626917719
