20
Coordinates from ORCA-job NEB E -41.793740211250
  C           0.66935584609302     -0.41108945421229     -0.95435931755628
  C          -0.53030106846365     -1.14564684360158     -0.84678043373299
  Cl          2.16495943670498     -1.23770653257843     -0.57698427681600
  H           0.78792730156146      0.19607467276118     -1.84792203800688
  C          -1.71542531791751     -0.68041142702888     -1.67591579483576
  C           0.47163020477706      0.81681007611331      0.45914306451550
  C           0.22528003670845     -0.02883548900280      1.55186627744892
  C          -0.94542218921186     -0.83781459444444      1.53439238202249
  O          -0.78024451715021     -1.80810127216379      0.24317366941563
  C           1.70683013894575      1.69258136492320      0.48095884223243
  H          -0.37545928869592      1.36284459820730      0.05386084323783
  H           1.07165475218989     -0.35940344322910      2.13621214982724
  H          -1.87713590918945     -0.32987666960603      1.29780340789506
  H          -1.05045344297161     -1.54909041227155      2.34440196874943
  F          -2.16559809971679      0.55315913388827     -1.27787598547243
  F          -1.37375873096775     -0.53134519302173     -2.97472267213563
  H          -2.56181184125880     -1.37789807977066     -1.60727524231764
  F           2.69551132392900      1.17514957780637      1.27028965683445
  H           1.44809885661110      2.66987952177654      0.90688104653731
  H           2.13436250802282      1.83072046545515     -0.51714754784269
