22
Coordinates from ORCA-job NEB E -48.203805489150
  C           0.58022445274830     -0.73580423171743      0.32164133425334
  C          -0.59936092493747     -1.18429656159574     -0.30309233736934
  C           0.62830107968416     -0.66343810190596      1.83369216201564
  H           1.50766929029221     -1.14150981867777     -0.07958913744653
  C          -0.50266990635423     -1.81384681584265     -1.68212080908797
  C           0.54249899191507      1.07059104260247     -0.24134447556475
  C          -0.73257962435909      1.52728079864787      0.11626378161793
  C          -1.87172776501552      0.87341204147439     -0.43998278976503
  O          -1.74289862739000     -0.65293205923157      0.03416521592831
  N           1.66580885146682      1.72314110311108      0.44541731591987
  H           0.79601058517132      0.89889672368638     -1.28352205645529
  H          -0.82818703247005      2.05529456686945      1.05513769719935
  H          -1.88499736176262      0.77314161874112     -1.52268238311688
  H          -2.83420035597340      1.17244802559567     -0.04186067792304
  F           1.91398593361379     -0.44411308305991      2.24072426665004
  H           0.32751861401129     -1.63013254205477      2.25334485599715
  H           0.00758195129684      0.13166079564070      2.25670636631236
  F          -0.14017879836548     -0.88439897146391     -2.62074310552169
  F           0.45624455897576     -2.76193100258984     -1.71563370310913
  H          -1.45545926564289     -2.25685253335480     -2.00476384950025
  O           2.72407248532192      1.69702646300610     -0.12921135599150
  O           1.44234286777326      2.24636254211913      1.50745368495740
