19
Coordinates from ORCA-job NEB E -37.134060353910
  C           0.81404184942897     -0.15819368123136     -0.08351718350315
  C           0.24193968381486     -0.80094979825819     -1.34005509923490
  N           1.06913844775339     -0.97975117486129      0.99154729708494
  H           2.13000682009209     -0.79957260191139     -0.32520956930473
  N           0.30828338740833     -2.14484296169708     -1.42142017622170
  C           0.14301775558341      1.18490131319248      0.20949864378502
  C          -1.24766826258791      1.02003278037201      0.77997258541671
  C          -2.33698073703617      1.26317035964080      0.07832110461326
  O          -0.23829918487083     -0.10169225169058     -2.19905554465750
  C           0.96644840854069      1.94576174319436      1.12394093997952
  H           0.08184223871612      1.71878986243511     -0.74700808164420
  H          -1.29110291977943      0.66562186922497      1.80018412424023
  H          -2.29176653326365      1.60735616967452     -0.94184372422710
  H          -3.31807905554056      1.11577312114165      0.49578152316614
  O           2.13849728200881     -1.67857548123425      0.65647585506179
  O           0.52779383210534     -1.08298453932519      2.05483804756460
  H          -0.07216804869233     -2.57815882191550     -2.24559563932590
  H           0.75486975461436     -2.73257873785759     -0.73822479355439
  N           1.62018528170453      2.53589283110655      1.85136969076138
