19
Coordinates from ORCA-job NEB_product E -37.217018478890
  C           1.58687666995576      1.74962646965066     -0.58036805841989
  C           2.26201053395692      1.71465938683622     -1.99701184001433
  N           2.45567754696198      1.12299725663742      0.43200158666952
  H           0.68701416079854      1.12681611550713     -0.65448561227144
  N           2.80969689800023      0.53638802896760     -2.30957497062408
  C           1.20906915325226      3.19486740087005     -0.22091146514859
  C           0.35776406883049      3.27306332653841      1.02141654775110
  C          -0.89959659108688      3.67003744687625      1.00676727459941
  O           2.20248739123191      2.67483338594269     -2.71931252728730
  C           2.39919763227602      4.01178187742432     -0.05563572392380
  H           0.66210495338110      3.60494090599155     -1.07944608345547
  H           0.85178780834500      2.99425433103838      1.94151824955502
  H          -1.39616659385031      3.96649573213108      0.09676036278281
  H          -1.48482443105414      3.71893067925665      1.90831432862952
  O           2.64582247971522     -0.07126308351705      0.29870743591515
  O           2.92240688942112      1.80310860977568      1.30442829540202
  H           3.28437687487594      0.44909473895978     -3.19335412538652
  H           2.87877436153390     -0.21401547654397     -1.63462709947415
  N           3.31272019345493      4.68458286765716      0.06721342470101
