19
Coordinates from ORCA-job NEB_reactant E -37.202099342980
  C           1.84279207810658      0.43011419328168     -0.01587623176100
  C           1.33474734739961      0.97353787127831     -1.16961271298489
  N           1.36018481583922      0.48377771769039      1.28275319220054
  H           2.72522147702383     -0.18461947143659     -0.10485815552887
  N           1.88074819230063      0.59610099191456     -2.35567797619730
  C           1.20587041588397      5.05289272935737      0.27386375733931
  C           1.29785916119820      3.80037174394314     -0.17147458581396
  C           0.11989199531522      2.91892976464273     -0.41223894626704
  O           0.38963172879755      1.89408400823702     -1.36540581240524
  C           2.34220907422666      5.84901323841890      0.51087354966277
  H           0.25182426781055      5.52066311034233      0.47777827917728
  H           2.26987803417664      3.36065760433513     -0.35807766336498
  H          -0.71676533646207      3.47338310848123     -0.84356114629858
  H          -0.20717133922256      2.46944059437189      0.54035684598383
  O           2.08925122013298      0.05305388130417      2.16144772478299
  O           0.22650711532927      0.90940595841169      1.50090305942831
  H           1.44768539505676      0.95721100926420     -3.18939977989136
  H           2.38295631664202     -0.27100869559513     -2.42243940512256
  N           3.26177804044494      6.50859064175698      0.69484600706072
