23
Coordinates from ORCA-job NEB_reactant E -57.848430762420
  C           1.44861181649518     -0.07729681652421     -0.09150898722125
  C           1.47917546073697     -1.41650759553959     -0.01836955989171
  C           1.96014093860892      0.83523261443458     -1.15469668341904
  H           0.99308857692990      0.46838560023940      0.71840926334894
  C           0.85047475625717     -2.07448628632779      1.21040137981024
  C           4.09213797565570     -3.61578440706279     -3.33839131921566
  C           2.99336395232277     -3.42193187471292     -2.63047078987004
  C           2.59868211541420     -2.10053167084640     -2.05042722914118
  O           1.94844643027602     -2.36486605871091     -0.81291097285055
  C           4.46379897977836     -4.93284647276857     -3.95067560931353
  H           4.81093869286487     -2.83100930061768     -3.52365215349410
  H           2.29887800071294     -4.22858700588323     -2.44325648946100
  H           1.90044694211208     -1.60345424574472     -2.73652746096894
  H           3.47650783900994     -1.46553389484038     -1.90009628726456
  F           3.29384525917785      0.76342706430839     -1.34842063268334
  F           1.40821120074935      0.63107964990914     -2.36911418701710
  F           1.70074410680187      2.10792888374847     -0.84003516536815
  F          -0.17598255989529     -2.86630990737495      0.83422015970448
  F           1.74878968301246     -2.86657484753562      1.82841684508148
  H           0.47151695897393     -1.34648872175604      1.94234091422068
  F           5.69270651822740     -5.32495389581268     -3.52451683842938
  F           3.60719769552269     -5.92051572153435     -3.60850581018271
  H           4.50297866025470     -4.89057508904715     -5.05371238637358
