23
Coordinates from ORCA-job NEB_product E -57.855898324930
  C           2.81643170947931     -1.82079139402478     -1.01374818413886
  C           1.51924968412345     -2.41590826206132     -0.45707530380310
  C           2.59665317952408     -0.31648282952981     -1.17506263371808
  H           3.62960413403735     -1.93950038453720     -0.28816380593481
  C           1.56979141673542     -2.74179665623608      1.05133417134457
  C           3.26315468572013     -2.45201238567269     -2.35602824690939
  C           2.23029863934812     -2.37807385094034     -3.44659990315434
  C           2.41875429469908     -1.70288275819226     -4.56411833753136
  O           0.51224833978225     -2.54451713871155     -1.08184577515981
  C           3.66101625376498     -3.91003381692537     -2.09405180614895
  H           4.17401743752305     -1.93313368585572     -2.67859580021368
  H           1.31283926425904     -2.91649401096393     -3.26384136689984
  H           1.66526200793240     -1.66776914579795     -5.33019020352090
  H           3.32552204254032     -1.15197788378590     -4.75544333577944
  F           3.68527472936394      0.29195280298555     -1.65913726737015
  F           1.58401918070024      0.00301240378187     -1.97659312642355
  F           2.33833120234524      0.24917011832111      0.01712964681029
  F           0.71421963213291     -3.72990355244149      1.35355429415883
  F           2.79895111173192     -3.13006447791274      1.45271008868588
  H           1.28937913300034     -1.84349696519029      1.63294805886181
  F           4.76027667726247     -3.96158681724855     -1.30523469516651
  F           2.68878442875572     -4.57402703711761     -1.43145552621591
  H           3.87972081523825     -4.45948227194298     -3.02149094177268
