20
Coordinates from ORCA-job NEB E -29.285116696250
  C           0.40322031354692      0.75599137435315      0.37717889087575
  C          -0.99310477143607      0.93195319275636     -0.09638981447685
  H           1.08488948480413      1.02000997775572     -0.44314415276701
  H           0.60854834674006      1.40202337763769      1.22908100174330
  C          -1.83329322555279      2.05651234895722      0.39515519649766
  C           0.62366158962148     -0.73081537467744      0.70222298767257
  C          -0.32329090644085     -1.47774920902205     -0.17677889154546
  C          -0.70866899870718     -0.83503327610762     -1.47442935900731
  O          -1.37888570764945      0.38025296392085     -1.25542233299088
  C           2.09266220279348     -1.17763594920595      0.56454592496053
  H           0.36404262187789     -0.88870916002407      1.75494307339242
  H          -0.09522201026535     -2.53422024695552     -0.28335043365867
  H          -1.39022038585495     -1.45814053259058     -2.05678743841732
  H           0.19235857955961     -0.64814841497806     -2.08325487611362
  H          -2.74468706123239      2.11849257726757     -0.19271351734661
  H          -1.30134877386962      3.00856177473104      0.33257704015198
  H          -2.09559871609883      1.89707680104468      1.44150682207186
  F           2.54564264173402     -0.96058818755570     -0.71837058466711
  H           2.19430400748389     -2.24967814029717      0.75613137874584
  H           2.75499076894601     -0.61015589701011      1.22729908487893
