20
Coordinates from ORCA-job NEB_product E -29.355536460130
  C           2.99824296465695     -1.41431384516392      2.08157404080644
  C           1.82381441545981     -0.71959327092483      1.41375234419485
  H           3.92180602723467     -1.01977467004213      1.65344277315834
  H           2.98631208218500     -1.22190923969043      3.15529502481437
  C           0.52253603274470     -0.80963149223374      2.16488403025342
  C           2.93400211634609     -2.93142753198901      1.82681913367499
  C           2.82198336477773     -3.21446415383650      0.35655510310590
  C           1.84712948344412     -3.91285973498008     -0.19133974170317
  O           1.93701397064884     -0.14191819244473      0.36478141177761
  C           4.19223734685664     -3.59003687272962      2.39973843757930
  H           2.07022129184792     -3.36040770761091      2.34486478172295
  H           3.61314246080813     -2.79865680145220     -0.25227017453982
  H           1.04953837131226     -4.33702603563136      0.39687784820839
  H           1.80628796188982     -4.09613948310965     -1.25064498772356
  H           0.31139780564181     -1.83975509538636      2.43874790336150
  H          -0.28821438281495     -0.41596931203459      1.55827082559421
  H           0.59909104095887     -0.22532859409671      3.08031923001790
  F           4.06197314836156     -4.95574724967382      2.38627666167472
  H           4.35249053038536     -3.30204537812510      3.44469522068929
  H           5.07869396725466     -3.34969533884428      1.80396013333236
