20
Coordinates from ORCA-job NEB_reactant E -29.341604104690
  C           2.70527899463562     -0.65706233504211      1.08952197565600
  C           1.50310008532238     -1.13483584793333      1.38206750020301
  H           3.44445013697309     -1.20690271245296      0.53711663741119
  H           2.98875107071041      0.32517219171613      1.41698150477560
  C           0.47998143762734     -0.37848417936001      2.17696242805024
  C           3.15954588155780     -3.85816971781555      2.14600414516249
  C           2.93396813727631     -3.85921318543290      0.84412649788176
  C           1.77646993703426     -3.17685196158804      0.17552631467087
  O           1.00340227424966     -2.35362688982764      1.01515696035749
  C           4.30868590085317     -4.54428101893240      2.80992668164532
  H           2.50552348445049     -3.33577394160266      2.82918208183731
  H           3.59418452671144     -4.38950517634063      0.17224926790235
  H           1.07830763888771     -3.93902860626157     -0.19163499718892
  H           2.13802928264481     -2.60558808539578     -0.69196612286859
  H           0.19655552714220     -0.95527629140355      3.05541721760468
  H          -0.41562165219208     -0.22920441524106      1.57675900443120
  H           0.87063017041719      0.58436423607904      2.48807967363606
  F           5.11486074829355     -5.19717682238683      1.91142191808178
  H           3.95436261140355     -5.29928883344976      3.52321472192246
  H           4.94403380600107     -3.82086640732840      3.33678658882768
