21
Coordinates from ORCA-job NEB E -41.279542051540
  C           0.59473939559043      0.66296290516673     -0.45584297203597
  C          -0.60696305120079      1.00539499445831      0.20014849591786
  C           0.52884082289555      0.41266475052855     -1.94412823849116
  H           1.47123528484036      1.23572206157656     -0.16741699967121
  C          -0.56601132604520      1.88965344569499      1.43344443132412
  C           0.95282482726921     -1.05359557137267      0.27962452098191
  C          -0.25337706298186     -1.74093168853814      0.04206527845439
  C          -1.44482144674917     -1.27742527212266      0.63013123886809
  O          -1.65809194433665      0.29021266626052      0.01917386996200
  O           2.11010080997419     -1.47590241695115     -0.30095257240068
  H           1.16508055191459     -0.72615522448838      1.29224054199223
  H          -0.32236049937497     -2.32659117624009     -0.86654908838560
  H          -1.41891143911751     -1.02907436928410      1.68448153087126
  H          -2.36497128596836     -1.75576197762107      0.32409967375902
  H          -0.37790852939334     -0.12537010004478     -2.20667456147628
  H           1.40355306174186     -0.13201021591933     -2.29079794294068
  H           0.51585304347549      1.37590415875301     -2.45242914470571
  Cl          0.15231808403708      1.04294869593226      2.85878236214388
  Cl          0.41198398919879      3.33675273176158      1.13587362150243
  Cl         -2.20518761607687      2.38332718313975      1.87785156782500
  H           1.91207433030719     -1.99272558068988     -1.09312561349491
