17
Coordinates from ORCA-job NEB_product E -29.777457829330
  C           1.62539913327889      0.38610889924508     -1.53423753782705
  C           1.04406055121298      1.33768170020133     -0.52385743989497
  C           2.26602553175707     -0.82837715745136     -0.86137806893909
  H           0.79481181439558      0.06823941813118     -2.17486040541935
  F           1.81008114744712      1.40925619214171      0.60444932597991
  C           2.66353811584462      1.10587034223262     -2.41542599828987
  C           3.75006758805697      1.78108690158196     -1.65359530482515
  C           5.02569232929247      1.46495521136398     -1.78340306180429
  O           0.06519656194409      1.98830108785189     -0.59215185386351
  Br          1.74216777581268      2.45935209461686     -3.54297915691972
  H           3.07728196439391      0.38868295246977     -3.12855771935723
  H           3.44066861848602      2.57576394685934     -0.98887526642011
  H           5.79136047851708      1.97248885447032     -1.22395377914385
  H           5.35448251484662      0.68460971504401     -2.45066294258772
  H           3.11844625380694     -0.52855311972249     -0.25617796668793
  H           2.60458914203586     -1.53427256043533     -1.61569569028083
  H           1.54293047887112     -1.32799447860086     -0.22113713371922
