17
Coordinates from ORCA-job NEB E -30.015179979380
  C           0.65761111693497     -0.07002256834483      1.03880711966203
  C          -0.49291925009382     -0.83590642451104      0.72056324099236
  C           0.45704323510268      1.17189983624841      1.69117992694868
  H           1.53452279639544     -0.60877831996216      1.38754357310782
  N          -0.36730866154952     -2.19714836234238      0.57278196389359
  C           1.07854626431885      0.54204824809491     -0.79472795589955
  C          -0.08412306013643      1.20016348696396     -1.18350364295416
  C          -1.25151955427065      0.41207597768997     -1.28728507577539
  O          -1.54077402753519     -0.27192628888040      0.24282430725246
  I           2.88991286505337      1.64531789320694     -0.65512362059618
  H           1.28191034926730     -0.44260098053248     -1.19776016874564
  H          -0.18894788256880      2.25077514406624     -0.95838393841408
  H          -1.17350609749234     -0.51991114389237     -1.83914938454452
  H          -2.18401307123026      0.93288308843832     -1.45524029819863
  N           0.28546351683128      2.17649496150537      2.21274395566762
  H          -1.22049169353560     -2.69870280336505      0.38267212011577
  H           0.31859315450872     -2.68666174438340      1.12205787748781
