17
Coordinates from ORCA-job NEB_reactant E -30.049668137020
  C           1.71549838080212     -0.00902298478979     -0.05657637819335
  C           1.60026380508783     -0.94018418090835     -1.03510819200090
  C           1.71963447232995      1.37800238182658     -0.18128180259608
  H           1.81405861196237     -0.36414778332771      0.95968206899414
  N           1.56183768192683     -2.27636447749235     -0.73833423336398
  C           3.20212652319233      1.44318762613524     -4.33462775549085
  C           2.74510456173242      1.11512324099126     -3.14299062498345
  C           1.37814421286296      0.52941088230796     -2.93698240711927
  O           1.44218806436281     -0.76687809121434     -2.36612246843912
  I           5.10832532962334      2.26432431826332     -4.64577237656310
  H           2.63346780016918      1.33202791211689     -5.24262707133445
  H           3.34239727870405      1.24681796577350     -2.25287761532454
  H           0.87377331990279      0.38574489298460     -3.89655976168125
  H           0.77712687462923      1.19693535433988     -2.30968252594011
  N           1.73739092169001      2.52899351959069     -0.21640429007687
  H           1.66291770932050     -2.90268741936702     -1.51928269520959
  H           1.94074445170129     -2.58068315723036      0.14074812932278
