21
Coordinates from ORCA-job NEB E -41.831229924360
  C           0.61271596448057     -0.43543863717430     -0.61076396939086
  C          -0.43116111391484      0.40138036759057     -1.06483489515784
  C           0.39937880238631     -1.92547147784734     -0.58601267490351
  H           1.60739719144267     -0.22955455516354     -0.99875394999194
  C          -0.07544840023611      1.71104635535775     -1.71734135016455
  C           0.68460118027904      0.06522441738651      1.28913113854037
  C          -0.65147754483172     -0.11347007751325      1.68754239005671
  C          -1.66323743029908      0.63984832665553      1.07932764506195
  O          -1.61204970906379      0.23428165002271     -0.60051718989837
  O           1.60424717233633     -0.74032524396661      1.88321382855298
  H           1.02282530751222      1.08382294063063      1.09109270097724
  H          -0.89444840159086     -1.05965052176024      2.14444333681007
  H          -1.50141663172876      1.70346263582911      0.94355623532487
  H          -2.68381969617551      0.38265218755027      1.32098411765137
  F           1.45755141218240     -2.57427894179402     -0.06661071344316
  F          -0.67792576667534     -2.36266085360876      0.05709376452639
  F           0.29334030211700     -2.39018978147471     -1.85364956848611
  H          -0.91731194094265      2.05737850573363     -2.31067888504089
  H           0.80215660665821      1.61680603243668     -2.34854365161625
  H           0.12187049623040      2.46123928297201     -0.94730240618949
  H           2.50221219983350     -0.52610261186261      1.60862409678103
