21
Coordinates from ORCA-job NEB_reactant E -41.872696751370
  C           1.92589307826582      0.05186498132013      0.13787862938076
  C           1.66639657002160      1.28945335832923      0.59185524988856
  C           1.61992955347325     -1.28994872124472      0.69192865171174
  H           2.42121840667560     -0.02710054397693     -0.81584923977889
  C           2.07389342278240      2.47036371828886     -0.24761360397371
  C           2.07063288203606      1.49740020777737      4.88157091261987
  C           1.95645286321485      0.81935335418538      3.74712656490373
  C           0.76769707843653      0.93852839191729      2.84608448839011
  O           1.06538644804535      1.73529523853752      1.69611125084153
  O           3.11231398249659      1.44177231135084      5.73417355843420
  H           1.30163801158679      2.16588579747111      5.24195078372498
  H           2.75292274182363      0.16659414764109      3.41885304731158
  H          -0.02820393327464      1.49363280956511      3.34866000602553
  H           0.38246515703937     -0.04114094677394      2.56339603541867
  F           2.21795616164355     -1.57700448546322      1.87222555108944
  F           0.30243545849420     -1.52848531976190      0.89550765752401
  F           2.03017281351287     -2.24799836085518     -0.15463612421033
  H           2.89810903067360      2.98857005979399      0.23899319062747
  H           1.23990684062482      3.16480141177195     -0.31121035075177
  H           2.37647082401062      2.16941563283136     -1.24369052264301
  H           3.78091260841713      0.82884695729465      5.40058426346553
