21
Coordinates from ORCA-job NEB_product E -41.870929518040
  C           2.41822509213708      0.80182904493341      1.61431390222672
  C           1.53933594619417      1.81794363638660      0.86242165642094
  C           2.16628953005354     -0.59747476853213      1.06581118974956
  H           3.47756287938833      1.01283105973308      1.43142855785156
  C           2.07379223138925      2.24302018281352     -0.47196242447292
  C           2.20415493778718      0.87436806442020      3.14816540321274
  C           1.08314644564537     -0.00172405327344      3.63878531687208
  C          -0.14099576800704      0.43368753599154      3.86487031620025
  O           0.52743856094627      2.24618647780451      1.34329505406366
  O           3.44683041453379      0.52376205466661      3.72219734134591
  H           1.96699427503863      1.92508006152639      3.38453350652766
  H           1.35564917905039     -1.03492324094127      3.80929863251466
  H          -0.41733620359272      1.45812090294170      3.68255482253489
  H          -0.91662410016867     -0.22583934494013      4.21245349549870
  F           2.75405514594220     -1.55808309087660      1.78327049107806
  F           0.86816083199736     -0.91484682060909      0.98422447645595
  F           2.65379912506019     -0.72754804815117     -0.18482872252066
  H           3.01735433221335      2.76715536838891     -0.32943535360630
  H           1.36268728051607      2.90653840428401     -0.95686524131455
  H           2.26469103944033      1.38139343430955     -1.10652029919816
  H           3.31728882443493      0.32412313912381      4.65518787855923
