17
Coordinates from ORCA-job NEB_product E -37.648137153300
  C           2.11212930913084     -1.32609988763397      2.48697635459449
  C           1.45824720881068     -0.40115984104411      1.48460777585282
  Br          2.43039835611886     -2.94487759483817      1.43546158700274
  H           3.09300330380188     -0.94564195396993      2.77994519661258
  H           0.47018593172081     -0.76222643029880      1.14643273023679
  C           1.20592336702794     -1.54117811038160      3.70775181649045
  C           0.03202860762811     -2.43219761842661      3.40288580720589
  C          -1.20681444409841     -1.99187673497443      3.29832775459078
  O           1.95817940046366      0.59882310865234      1.06754818528971
  C           1.97077581254731     -2.06533541728187      4.92852239507295
  H           0.83565639066284     -0.54635052064082      3.99090989119265
  H           0.26688310033409     -3.47691305382477      3.26025845776376
  H          -1.46178497892406     -0.95416517471719      3.44178489509490
  H          -2.01962004540451     -2.65712707573143      3.06646707728427
  Cl          0.83536869897461     -2.18023767358064      6.30048767571638
  Cl          2.68922989811052     -3.66186008370578      4.66237861485948
  Cl          3.27041008309483     -0.92957593760222      5.38935378513935
