20
Coordinates from ORCA-job NEB E -42.002814679450
  C           0.37533012645784      1.13625735871420      0.21920379161202
  C          -0.77565111065972      0.96112183120145      1.03412188301556
  C           0.17345220559088      1.80395247304537     -1.01451860068247
  H           1.29650482748045      1.41753807872171      0.71891791565023
  N          -0.62284088630995      0.85834267885054      2.39248364172086
  C           0.58841867489181     -0.75425360967773     -0.30671366223028
  C          -0.63135441559205     -1.04159875610179     -0.92934152378890
  C          -1.79033260277219     -0.97594069365895     -0.11829676599262
  O          -1.88622229076619      0.56845270192506      0.52119504998637
  C           1.86924644641253     -0.89002303099648     -1.07962426855197
  H           0.72101945368710     -1.12786270730582      0.70666164705970
  H          -0.72896652604875     -0.85148376910708     -1.98670457207512
  H          -1.76025634275554     -1.52215151933384      0.82025594539040
  H          -2.74429109277778     -1.05078068700224     -0.62234460054861
  N          -0.02944545491193      2.38273350629607     -1.98154969750668
  H          -1.46823582947406      0.76349146224236      2.93210735715981
  H           0.14609706253492      1.32732352477513      2.83935351505332
  Cl          2.22315219081231     -2.64346429255077     -1.22480221445811
  Cl          1.80375794577916     -0.20437134024166     -2.70865682224765
  Cl          3.24061761842116     -0.15728320979552     -0.21174801856586
