20
Coordinates from ORCA-job NEB_product E -42.060162438610
  C           3.17173892196906     -1.89125001666457      0.08021021272056
  C           2.05516683197384     -1.89430385287175      1.15861303677771
  C           3.11538439902277     -0.68207568161440     -0.69898235959479
  H           4.12602813914073     -1.91355086155843      0.62369433362690
  N           1.78917355705248     -0.68195723722857      1.67505958515260
  C           3.04720882446885     -3.16791464771739     -0.77924860883384
  C           1.97712690649002     -3.00481908700333     -1.82549446266712
  C           0.80412363683492     -3.60190381868253     -1.74814326262205
  O           1.52353272447602     -2.91181167010403      1.52283586121745
  C           4.37863307212131     -3.54881502212268     -1.41880733684068
  H           2.75841123231997     -3.97616880931439     -0.09598016863366
  H           2.21793968371663     -2.33795652356915     -2.64161544373836
  H           0.55501194789217     -4.25508282657998     -0.92857677683785
  H           0.04524863752892     -3.45137695255065     -2.49584932264009
  N           3.02488386122948      0.30514397945256     -1.26981342566787
  H           1.06780050923939     -0.60813045284475      2.37419538735181
  H           2.18664844445329      0.16283703679786      1.30100990265787
  Cl          4.16185825969005     -5.00885539328398     -2.40959751035591
  Cl          5.01422108787069     -2.24786461177749     -2.45549410242356
  Cl          5.60145932250940     -3.90664355076234     -0.16931553864911
