20
Coordinates from ORCA-job NEB_reactant E -42.037606793670
  C           1.96471834854723     -0.44125980502380     -0.36803921987111
  C           1.67296906319763     -1.11376951144444      0.77222160993060
  C           1.94080470360715     -0.91293969459019     -1.67662160908949
  H           2.21414433284822      0.60668575009226     -0.27784917087917
  N           1.62727376112801     -0.47411349262758      1.97957508857213
  C           3.29353200220638     -3.82979230458595     -1.70915694248847
  C           2.83488155461190     -3.66050038746281     -0.48005261181453
  C           1.41210784105086     -3.31362759981386     -0.15653281488771
  O           1.33102548609408     -2.41345226280208      0.93262033106342
  C           4.69300289015269     -4.17497338083192     -2.06359054578304
  H           2.65289650060321     -3.69287376958082     -2.56945279228617
  H           3.47993696848103     -3.77287416697860      0.38068806959052
  H           0.89622011033733     -4.21115797261918      0.20363733021000
  H           0.88513840617753     -2.92828860741428     -1.03346133240727
  N           1.92759517164552     -1.23667639916448     -2.78185301833109
  H           1.59623974675266     -1.05931415216316      2.79662446752558
  H           2.06513160865178      0.42472183719222      2.06790269879947
  Cl          4.70510300273758     -5.67399949177330     -3.03775816602525
  Cl          5.38476265513890     -2.85624174203343     -3.05220354485551
  Cl          5.74391584603030     -4.42615284637457     -0.66409782697292
