18
Coordinates from ORCA-job NEB_product E -41.391614371950
  C           2.73315424183277      2.39575866760009      0.50709116560913
  C           1.56564912607971      2.72730047830675     -0.40363762301427
  F           3.18577171059831      1.12203163442110      0.31954166897156
  H           3.56345932085536      3.07208907176522      0.24956513379504
  C           1.20479929066670      1.72540271102981     -1.48081010026363
  C           2.30070969198304      2.61900556262732      1.97604418377525
  C           1.26180443564032      1.60403260010171      2.38599465141311
  C           0.01043361821850      1.92364254364048      2.65155381857838
  O           0.95011453818971      3.74812723054875     -0.28778891105837
  C           3.45721983083200      2.52156410779490      2.84268493710242
  H           1.89230467191555      3.63484046032604      2.04385533390015
  H           1.61070628200667      0.58178821452559      2.43202125236483
  H          -0.34452689100699      2.94082514999038      2.60602949157566
  H          -0.71136674362130      1.17404898485264      2.92416270253883
  Br          0.60051783314241      0.07349432770247     -0.65377474680085
  Br         -0.23549100832728      2.44855560993141     -2.54763920590422
  Br          2.74795936707428      1.40116307577295     -2.62056396053118
  N           4.36328068392025      2.43512956906240      3.53097020794816
