17
Coordinates from ORCA-job NEB E -34.401504772250
  C           1.09536050401597     -0.15965110443605     -0.31940234735471
  C           0.38389965405420      0.29841061688940     -1.44327230825345
  C           0.83892276074338     -1.60369996850594      0.06001612201029
  H           2.14886306554366      0.09436780908250     -0.25906973614587
  H           0.79948226162732      1.11935344687699     -2.03224895891399
  C           0.22822102856190      0.88022102988933      1.02292431312099
  C          -1.11374452255844      0.49441954542240      0.89078269710154
  C          -1.75527317921325      0.78293852250135     -0.34021674162120
  O          -0.87897223670734      0.05465678778471     -1.53775390083830
  Cl          1.03567358480978      0.56497784423055      2.53484746651917
  H           0.51763579997098      1.85870096682890      0.65380676610073
  H          -1.47381765623909     -0.32586440111376      1.49331504149407
  H          -1.69218492713063      1.80687552136203     -0.69488929333937
  H          -2.73858171630587      0.35343498972324     -0.48445418697850
  F           1.45588810384079     -2.39903251607532     -0.85538385945180
  F           1.37634447058499     -1.95028798904799      1.24687920451692
  H          -0.22771699559835     -1.86982110141234      0.06411972203345
