17
Coordinates from ORCA-job NEB_reactant E -34.444277836690
  C           2.29384651042958      0.38219824763085      0.84976979291375
  C           1.41021247951817      1.34638219092152      1.08896783669813
  C           1.90403498619509     -1.04355947505591      0.65066507062996
  H           3.34529954831253      0.60258990059129      0.78788264470133
  H           1.73610339266008      2.37083600660741      1.23325887593222
  C          -0.10849349450383      3.99098614902455      3.13996208507135
  C          -0.46481707657660      2.74556297481376      2.87332986590505
  C          -0.72263533100908      2.24813486625090      1.48134642681780
  O           0.08183458742612      1.12357570899679      1.16272551011586
  Cl          0.19286990197294      4.55636523992583      4.73105533838257
  H          -0.00245164328580      4.75343096084334      2.38193673515605
  H          -0.55469241529725      2.00908758673262      3.65807954583754
  H          -0.56526456932596      3.05027190497084      0.74943278390582
  H          -1.75034616059022      1.88255772678569      1.39764021084399
  F           2.29879216469541     -1.49532481890412     -0.57214918933853
  F           2.52832929018263     -1.85362634636432      1.54984362194126
  H           0.82127782919619     -1.20916882377105      0.73905284448583
