20
Coordinates from ORCA-job NEB E -41.353777716140
  C           1.09316065478054      0.33571364137320     -0.51697665749983
  C           0.42838260752033      1.47252487162532     -0.97692226687937
  C           1.05807179927951     -0.89900787009841     -1.37754972205667
  H           2.04340200671659      0.49767063254629     -0.01768311043934
  Br          0.95802500972276      3.17010696214039     -0.14951405896150
  C          -0.17110941033818     -0.02726201842432      0.96063228892743
  C          -1.41335296474554     -0.06925987508051      0.33231362087782
  C          -1.86654990490548      1.12239055746909     -0.30875578675469
  O          -0.75692591432332      1.43507497135508     -1.44030858514740
  C           0.31370936899851     -1.27386277904909      1.65351044347862
  H           0.08885629020939      0.84998366873232      1.54749438571099
  H          -1.79067831902452     -1.02066666889317     -0.01180034371190
  H          -1.81879691187192      2.03579075560841      0.28183343287062
  H          -2.78100970652451      1.04551075785539     -0.88371455112917
  H           1.36305834459722     -1.77917985813785     -0.82033964583242
  H           1.76480895103296     -0.76684221781469     -2.19650353454405
  H           0.06973367082984     -1.05805012443499     -1.80076067584627
  F          -0.06302527218901     -2.40895731512750      1.05070109203487
  F           1.64975700780964     -1.32726309422553      1.76773551018136
  F          -0.16951730757484     -1.33441499741943      2.90660816472089
