20
Coordinates from ORCA-job NEB_reactant E -41.375098108870
  C           1.78250574549787      0.00902483330492     -0.01178252440763
  C           1.46435494865303      0.30907827574842      1.23859891483686
  C           1.84021734346296     -1.38517332583489     -0.53903335879629
  H           2.03202649698631      0.80587660353645     -0.69470194561677
  Br          1.42008791749648      2.17343188812487      1.77395282236073
  C          -0.51176060866208     -1.45110741304741      5.20076970072558
  C           0.04061121264917     -1.54028877637045      4.00233507729095
  C           0.09247955309340     -0.41732414418826      3.02209227261922
  O           1.24959641712328     -0.58388707689765      2.21850134746254
  C          -0.58532376224673     -2.60765351837252      6.14631599840454
  H          -0.96274170535297     -0.54788062334722      5.58308255300706
  H           0.49127324550255     -2.46301109325221      3.66333743138590
  H           0.11618414567662      0.55282915161142      3.53532938494942
  H          -0.80822119672782     -0.44948062543564      2.38823563016156
  H           1.51573688436977     -2.09821555475832      0.21333690488007
  H           2.86056996203058     -1.62645256711689     -0.83431934028030
  H           1.20829934979020     -1.47428694905835     -1.42163474448465
  F          -0.01602548447529     -3.72287661292560      5.67249687247453
  F           0.01389229794503     -2.33670577718720      7.31801837705914
  F          -1.85896276281237     -2.92599669453348      6.44406862596754
