24
Coordinates from ORCA-job NEB_reactant E -44.479624148850
  C           1.55289357126534     -1.09953833903039      0.14823045942430
  C           2.11566013194567     -0.83355448835073      1.33952160621481
  C           2.19838029658432     -0.89209465863387     -1.16084205463878
  H           0.54530272876920     -1.47387130415655      0.08335616785071
  C           3.50038872396848     -0.29565184969779      1.52501508817190
  C           0.10238073727838     -3.94068695763668      3.37463683126966
  C           0.22449482482253     -3.06655339117233      2.38107685085234
  C           0.21616778030344     -1.58828109893098      2.62188398651932
  O           1.51790245185101     -1.01179568742382      2.52778522604966
  O           0.11099393487505     -5.28518796583112      3.31580297176774
  H          -0.04652749097908     -3.61818886757339      4.39717939720354
  H           0.38686874512338     -3.38709819366359      1.36479939002260
  H          -0.09300585192212     -1.37535293590897      3.64768369489398
  H          -0.46461489507264     -1.07558175718731      1.93134599331473
  Cl          3.76767999632479     -1.73849932080577     -1.30757339489799
  Cl          1.15149236636183     -1.49721171291220     -2.46247240705886
  Cl          2.50935104730205      0.85285763834038     -1.51016578377739
  H           4.22929905060292     -1.09291652995989      1.39449359131414
  H           3.59006167060478      0.09449259030619      2.53505055887491
  H           3.71595147175663      0.48868037793265      0.80654750259745
  C           0.30933498411660     -5.88720503456248      2.05607652892456
  H           0.29837464193797     -6.96123528512593      2.23110593480992
  H           1.27200961126503     -5.59566342158482      1.62574239891869
  H          -0.49254052908557     -5.62126180643060      1.36081946137805
