18
Coordinates from ORCA-job NEB_product E -29.333167449530
  C           3.17101412296986      1.27200565514111     -1.42588636531413
  C           1.76174181852861      1.51092307942416     -1.99452054886866
  O           3.21690785579304      0.05899172645818     -0.73501233352761
  H           3.85959094782837      1.26122446571154     -2.28897054261248
  C           0.75673213193652      0.45741135414838     -1.66620959437459
  C           3.49703007600329      2.48837434958024     -0.55035141009973
  C           2.60201366797439      2.58375632801676      0.62840659878484
  C           1.94773306975397      3.68277219806922      0.95822044424387
  O           1.53327836725301      2.49471736784287     -2.64924100323589
  I           5.57672785167472      2.33121753926467      0.14536271346097
  H           3.46519390534379      3.39331454909762     -1.15531690542794
  H           2.50753082427766      1.67686811295576      1.21180215128201
  H           2.03840530983099      4.59032124870117      0.38434847077478
  H           1.29200363768467      3.71541661328528      1.81067768977551
  H           4.10733979966521     -0.05957537181742     -0.37505785059986
  H           1.11281512713771     -0.50201528594386     -2.03499467523105
  H          -0.20489100530547      0.70418712605449     -2.10635871984307
  H           0.67163249164964      0.37208894400981     -0.58509811918698
