20
Coordinates from ORCA-job NEB E -41.054110727150
  C           0.11839522325035      0.67993612995524      0.74849116887613
  C          -1.06445725740798      0.11196054603724      0.23446400300203
  C           0.48337431493432      2.07303291228754      0.28712718817780
  H           0.23935867136562      0.56490202732302      1.82271189550687
  C          -1.76117100446658     -0.94042754511069      1.09474125834059
  C           1.46090447572315     -0.39717353230781     -0.05213848993047
  C           0.88405702274677     -1.18017906778155     -1.06004877060908
  C           0.02299535725411     -0.49126912346932     -1.95419597342325
  O          -1.25056240410396     -0.00886424143317     -1.04077442275313
  I           2.51792025344223     -1.42550839431306      1.49082414957661
  H           2.05606252512476      0.44515790975358     -0.37735859231659
  H           0.65540438153920     -2.21673204067307     -0.85072948902640
  H          -0.47358861389766     -1.08500490263576     -2.71203559914241
  H           0.38214901715091      0.45951811376677     -2.33954133987925
  H           0.37046475388454      2.18518684873618     -0.78766504139309
  H           1.49726713533597      2.33519059861619      0.57994996179968
  H          -0.19476081580674      2.77470028952860      0.77162079670247
  F          -3.00889871376320     -1.18331693453928      0.69109832035569
  F          -1.11280794325878     -2.12656920723154      1.06986399998724
  F          -1.82210637904702     -0.57454038650910      2.38359497614856
