20
Coordinates from ORCA-job NEB_product E -41.099037150070
  C           2.60710169005369     -1.56734579722435     -0.33693207809592
  C           1.43929720640335     -2.22161815852191      0.35952469637664
  C           2.09202528756855     -0.26591939547610     -0.97450981479482
  H           3.37168511220454     -1.32096875403793      0.40751335329260
  C           1.41199864827818     -1.92459349811690      1.89117992893462
  C           3.23303225265172     -2.46353183674368     -1.40941041640219
  C           2.34357431348373     -2.80255131263662     -2.54909018547816
  C           2.68701818001531     -2.60445904433519     -3.80981631666445
  O           0.56363025081262     -2.86315947277551     -0.13707579498546
  I           3.91146501923119     -4.32435463145861     -0.45609398555572
  H           4.15080323764761     -1.99408726610542     -1.76824774140646
  H           1.39200541375868     -3.24527828299236     -2.29369814218146
  H           2.02892790503407     -2.86369176675652     -4.62023060648238
  H           3.63848464143968     -2.17657024892959     -4.08301155276459
  H           1.29956015044185     -0.48286132005974     -1.68685266533777
  H           2.90731655782672      0.22781475171612     -1.49763673276452
  H           1.71011375312252      0.40869596682072     -0.21240163274365
  F           0.36816270352073     -2.47665584104331      2.49730835948071
  F           2.52262646986238     -2.36542327260221      2.49606685447918
  F           1.35507120664286     -0.59784081872088      2.11111447309379
