19
Coordinates from ORCA-job NEB_reactant E -45.065272032270
  C           1.95878045241119      0.18965464557605      0.06130727155162
  C           1.62263990567837      0.84364903069009     -1.05677580553135
  C           1.46074035869349      0.39657430095290      1.45730722817408
  H           2.66414838680468     -0.61906523588375     -0.06253811739589
  N           2.26095644437350      0.33835624953121     -2.31689992729685
  C           1.60970244183122      4.98959744866834     -0.77320135778712
  C           1.52671027497293      3.81171480114995     -0.18313447397028
  C           0.40800016242336      2.85768853758392     -0.46590600653716
  O           0.82563324354732      1.84145452790218     -1.38461723314407
  F           2.61759981440230      5.82928897532090     -0.52741167946489
  H           0.89926320087168      5.39925456235535     -1.47758577931425
  H           2.29641560282858      3.49575773062101      0.50482391576688
  H          -0.40359391130370      3.36108140638321     -0.99476394196560
  H           0.01878648755828      2.42252013076961      0.45557606311130
  F           1.86580783451718      1.58669365523237      1.97917289900569
  F           0.10221069360277      0.41807443044448      1.51784197786914
  H           1.80850068303521     -0.39514119459266      2.13546987994121
  O           2.09040437970537      1.00199526481601     -3.30159471233455
  O           2.89349354404626     -0.68534926752117     -2.24477020067789
