19
Coordinates from ORCA-job NEB_product E -45.063337169750
  C           2.30286186139970      1.39521889077373      0.09149482970640
  C           1.51830023867090      0.69734878507711     -0.96804296961763
  C           1.93502681832208      0.82131843352367      1.47311450964590
  H           3.37391644145310      1.21155226041907     -0.06565147110557
  N           2.05933889444102      0.96281707301897     -2.39991266930138
  C           2.11178935653031      2.94747916687986     -0.00858596608795
  C           0.68314407961557      3.38077187394460      0.14889276828461
  C          -0.20429871695536      3.33154816937718     -0.82570515449965
  O           0.57868377444591     -0.01408165844494     -0.87076991617459
  F           2.88867206487881      3.52017196840139      0.96012634908550
  H           2.53136512266184      3.27960057725787     -0.96871757937344
  H           0.42617348157087      3.74008338950907      1.13360319409821
  H           0.03420739310281      2.98020346176690     -1.81736929245161
  H          -1.21946809537178      3.64869506194467     -0.67127103038736
  F           2.88604013222015      1.12548409422624      2.37614687688452
  F           0.77496532660872      1.31683339516936      1.94248192849523
  H           1.83932780393501     -0.27669496814497      1.43799063144134
  O           1.35204510843308      0.59257558603237     -3.29229991090103
  O           3.13030891403726      1.51207443926785     -2.48352512774148
