22
Coordinates from ORCA-job NEB E -39.761541811020
  C           0.45615230190876      0.85093113764632     -0.28353200200165
  C          -0.74637052487609      1.04681709530054      0.42409232235007
  C           0.43094898894512      0.85207500330366     -1.79770384603688
  H           1.32963731830727      1.37660880619170      0.09432091889960
  C          -0.72336925350262      1.58084748884749      1.82444392476988
  C           0.73179210358363     -0.96265753901476      0.18858246414090
  C          -0.44074977480806     -1.62854327372134     -0.20080414127052
  C          -1.66930788632905     -1.18807158218900      0.37233639844613
  O          -1.79435423422164      0.37055594130299      0.02939325130263
  N           1.95602922776016     -1.35333040744359     -0.50449993578678
  H           0.94379042841875     -0.80120587299859      1.24257598359428
  H          -0.44518155777473     -2.11342295499661     -1.16561534156788
  H          -1.70759683027824     -1.16173392685495      1.46053530986118
  H          -2.57067241766124     -1.61140005404621     -0.05490892594634
  F           1.70786020724228      0.96097449624390     -2.27855349327525
  H          -0.11511875887324      1.73045995241984     -2.15981097247813
  H          -0.00579658245817     -0.05355771141889     -2.22904013361830
  H          -0.57669055086667      0.75986576950663      2.53338025407544
  H          -1.67922115316370      2.04458455020299      2.05566334284048
  H           0.07496984843337      2.30313512440553      1.95879220294509
  O           2.98947753135685     -1.15871394997226      0.09123232259200
  O           1.85377156885728     -1.84421809271538     -1.60087990383597
