22
Coordinates from ORCA-job NEB_reactant E -39.789849363960
  C           1.94875290361153     -0.24192381461615      0.09220038483257
  C           1.51867241537006     -0.58300816048719      1.30377532104882
  C           2.13393831657835     -1.03979119360224     -1.16410604063439
  H           2.21734081093335      0.79398905490584     -0.04773418664235
  C           1.41142684508581      0.42639159768006      2.41116803504003
  C           2.94862796340940     -4.57723849686846      0.25488569964570
  C           2.58997652896093     -3.47715288385849      0.90767217562919
  C           1.18761969306235     -2.97486529739041      1.03667808478189
  O           1.08442446357221     -1.79274531902848      1.78289856277816
  N           4.31974621861353     -4.99570159539877      0.20763562425623
  H           2.27861521951090     -5.23573549351162     -0.27623252581751
  H           3.35622760802490     -2.89940601004304      1.41305853436541
  H           0.60189409477395     -3.70656870949532      1.60755141936462
  H           0.71820757296492     -2.87481039305524      0.04991141225707
  F           2.84617596883225     -0.28961844296592     -2.06812163939011
  H           1.18062749691879     -1.27141645064718     -1.65988014081850
  H           2.71047215416404     -1.96107828591894     -1.01689143987801
  H           2.05673600530390      0.13257393089808      3.23674514068817
  H           0.38938974572267      0.44929405133787      2.78349724534340
  H           1.69370096318177      1.41530972331961      2.06907809314166
  O           5.14942670363415     -4.30939464327117      0.76215818801659
  O           4.54880030777023     -6.02310316798283     -0.39224794800864
