22
Coordinates from ORCA-job NEB_product E -39.805762542330
  C           2.65784329263262     -1.39013558485056      0.45429012135023
  C           1.43529611599742     -0.81764691107344      1.17266711289708
  C           2.57682159016211     -1.07660782651062     -1.03945615881707
  H           3.57436555815243     -0.96315358759404      0.87626717990177
  C           1.68613301299856     -0.41030248213086      2.59599081841413
  C           2.69969976305459     -2.91413123090243      0.71327798432718
  C           1.73258590410261     -3.69287408745068     -0.12143146944970
  C           0.55426395607982     -4.08843091638635      0.32071392286938
  O           0.37111984595758     -0.70878004204476      0.62482433324104
  N           4.10596231269865     -3.40301924649799      0.49199837932793
  H           2.50912180533423     -3.09065416623930      1.77966471930522
  H           2.05884212954106     -3.91262569923461     -1.12751380750678
  H           0.21820153862936     -3.88124506185426      1.32376908883632
  H          -0.13040382730716     -4.62718855675959     -0.30928034482705
  F           3.58548351343508     -1.71304984864561     -1.71485681767188
  H           2.69810078092918     -0.00368854563137     -1.21577517575065
  H           1.62776412521514     -1.41902329046582     -1.46156462682605
  H           2.35985142600372     -1.09784708993192      3.09985502340178
  H           0.74741061179463     -0.33137436294667      3.13762209731170
  H           2.15978335649701      0.57105907585471      2.58551112139824
  O           4.98483626366931     -2.73584915873548      0.97820174127932
  O           4.24741692442206     -4.44013137996834     -0.09437524301214
