18
Coordinates from ORCA-job NEB_reactant E -32.620366117680
  C           1.28603647314172     -0.38501496134535     -0.15387130179566
  C           1.10355589591060     -0.60922562963070      1.14498928912942
  O           1.63289827158456     -1.37810920493728     -1.01439298387613
  H           1.15992049453293      0.60758080401426     -0.56353209821830
  I           0.52814390746816      1.06791085867428      2.34511660321267
  C          -0.64509974577331     -3.18090172565705      0.38628182580412
  C          -0.79340943264060     -2.92893475784929      1.67124110271390
  C           0.29723522885977     -2.34053492941384      2.51968311294132
  O           1.36083538427277     -1.76015511719136      1.78852679957710
  I          -2.17312843826851     -3.98277320845754     -0.81092172686927
  H           0.26772325170759     -2.99110147032585     -0.15291249301723
  H          -1.71401383568757     -3.13643586814107      2.19694809305946
  H           0.76109347400151     -3.12461509832283      3.12774587689566
  H          -0.13905003321872     -1.59299941083361      3.19995488426093
  C           1.78483938863258     -0.98467279383160     -2.36060042590194
  H           2.05963365821406     -1.88343081102422     -2.90919806454555
  H           2.57600515155987     -0.23672475492298     -2.46747463811426
  H           0.84968090570259     -0.58316192080398     -2.76368385525620
