18
Coordinates from ORCA-job NEB_product E -32.635646549650
  C           0.66847734462993     -1.31562956068410     -0.24304848072475
  C           1.61249721786944     -0.63782680816811      0.73377050621473
  O           1.35702662006741     -1.73315098058239     -1.38102337628757
  H          -0.15944543262068     -0.63372959237573     -0.49743750159275
  I           0.65550834863857      0.94412182753828      1.87213571031505
  C           0.13745722975844     -2.56962727507552      0.45810851259087
  C          -0.69913082165301     -2.29010206737739      1.65107916136464
  C          -0.47674380582004     -2.83008890099002      2.83645239083915
  O           2.74725503002388     -0.89294099730345      0.91937617602761
  I          -1.04192127602418     -3.65970714050032     -1.01249185721590
  H           0.97694328982050     -3.22575841885393      0.68885325011246
  H          -1.53659281273455     -1.62330842967320      1.49190851035262
  H           0.34397050084815     -3.50734390684654      3.00912865340718
  H          -1.10508150100969     -2.61009817114526      3.68118411086582
  C           1.72034892062078     -0.69943256551839     -2.26826397825703
  H           2.14828073052986     -1.19165899900240     -3.13818819951078
  H           2.46568694477477     -0.03167651444372     -1.82418017974621
  H           0.84386347228041     -0.11524149899781     -2.57046340875514
