20
Coordinates from ORCA-job NEB E -53.079856514190
  C           0.55830190414929      0.59470953120211     -0.41134944079955
  C           1.70520477354868      0.14612130738215      0.29417697890035
  C           0.10244233670992      1.96389461907292     -0.45920163066867
  H          -0.36062491129056     -0.36996581218044      0.87277375352036
  C           2.98239847080691     -0.21880182359245     -0.54444157820689
  C          -1.36465731552541     -0.67273310175483      1.25105470747020
  C          -2.11875573220550     -1.45828483214660      0.23029714197126
  C          -2.72001052669154     -0.86671767228761     -0.78814059087960
  O           1.69585902586896     -0.25072527495966      1.44535512213063
  I          -0.93962539395522     -1.80081105593713      3.02659142519010
  H          -1.89952471977165      0.21975569008715      1.55962835692691
  H          -2.19354270979849     -2.52278768055281      0.38019960332574
  H          -2.65166121304902      0.20269944513413     -0.90417726268996
  H          -3.27866494693742     -1.41118378934700     -1.53471048257723
  Cl          1.31371444996679      2.07095370781922     -1.82109295225444
  Cl         -1.49363392901485      2.32060482949478     -1.06274173499623
  Cl          0.51533023564862      3.10791896870480      0.85678982108469
  F           3.66199438337698      0.83596810128538     -1.02600135387748
  F           3.82341808861801     -0.89347131901766      0.21544437475328
  F           2.66203772954549     -0.99714383840633     -1.58045425832320
