20
Coordinates from ORCA-job NEB_product E -53.202739323900
  C           1.57436603029270     -1.19769099205760      1.30703071197819
  C           2.75611890350695     -2.13504343898995      1.11056368811509
  C           1.37250709298958     -0.06831607010097      0.28774414139225
  H           1.80922015426177     -0.68876805747133      2.25185577814830
  C           3.19170995393652     -2.66394835535456     -0.29124188991374
  C           0.28513527326186     -2.01915574537583      1.52808258421085
  C           0.05707880331983     -3.12446798982265      0.55975014100317
  C          -1.06938388132132     -3.27627632532942     -0.11334309134415
  O           3.37260358197007     -2.54407242107621      2.04903840722018
  I           0.34509654499948     -2.88219833299395      3.53410232068162
  H          -0.56264919479428     -1.33307514453806      1.54825274875876
  H           0.84957004003349     -3.85612216242631      0.47853672684976
  H          -1.88141347174713     -2.57297534637061     -0.02900320288337
  H          -1.21486089297350     -4.10367159441748     -0.78428650696255
  Cl          0.36126954109645     -0.47291896559983     -1.11030443682245
  Cl          0.55976515520122      1.28305058975960      1.13748390816664
  Cl          2.96660898418105      0.51078642367930     -0.27498015402624
  F           4.39677627093599     -2.18318053547511     -0.60565642659575
  F           3.29556917621132     -3.99697473671260     -0.23293402104583
  F           2.37391193463793     -2.39028079932644     -1.30619142693070
