17
Coordinates from ORCA-job NEB_reactant E -40.922155355880
  C           1.71593316734738      0.00964942379118     -0.28370313195199
  C           1.31843985169314     -1.20402794676553      0.08613761449153
  Cl          2.78948322850658      0.39328152825214     -1.57808175427043
  H           1.34766756813383      0.86456777419700      0.25744830682672
  F           0.47108411643736     -1.26807141335895      1.12687703599921
  C           2.71135957024385     -4.75289517421566     -2.75824971152504
  C           2.53747000158285     -4.16637901091201     -1.58473403108161
  C           2.43922291769218     -2.68549005308462     -1.41120618712507
  O           1.55432825996902     -2.44913775542124     -0.32927973020493
  C           2.85830707635301     -6.20486755040610     -2.99421711642184
  H           2.77656965943458     -4.16723216239599     -3.66801462969477
  H           2.46010994510052     -4.72934630292333     -0.66493486988499
  H           2.07464558283332     -2.20181628452250     -2.32376443862029
  H           3.43534659534219     -2.28577159172760     -1.17450951461800
  Br          1.46878523077517     -6.80247930765920     -4.25858554632986
  Br          4.61695944780270     -6.54631831548724     -3.83029047847368
  Br          2.73448778075228     -7.30886585736036     -1.40699181711495
