22
Coordinates from ORCA-job NEB E -32.676224965020
  C          -0.96398293705739      1.24939654909030     -1.99561587426353
  C          -1.10779223991626     -0.06654425294490     -1.48419151105532
  C           0.34859975541825      1.92687702024954     -2.00131134848207
  H          -1.81987989515590      1.76056471134948     -2.40746437227844
  N          -2.39509645350819     -0.58059237122694     -1.50354415805696
  C           1.19017875907982     -0.29186830668694      1.69427502932245
  C           0.11239943184678     -1.10033032600239      1.97366288607943
  C          -1.18661474038128     -0.69096324324360      1.84642336351485
  O          -0.19108948472928     -0.73064549863838     -0.99245289395289
  C           2.60025205814541     -0.74141780888421      1.74435590182055
  H           1.03569128884286      0.71792832368946      1.34833759419580
  H           0.31380140712097     -2.11551197937973      2.28844876589109
  H          -1.42493502572123      0.30939697966990      1.53174765075615
  H          -2.00547527023838     -1.36147721508386      2.03170987370481
  H           1.09113331955657      1.26977085758178     -1.55396040367725
  H           0.30776317149359      2.86698837104386     -1.44484000672748
  H           0.65701673922568      2.17819181277767     -3.01959647984747
  H          -2.47346096862516     -1.56521103412525     -1.30723729215502
  H          -3.07224620061911     -0.19706075274103     -2.13981477886430
  F           2.75764432744960     -1.92589015832281      2.41836521341879
  H           3.24233946599223     -0.00465043937446      2.24696381595731
  H           2.98375349178042     -0.90695123879749      0.72573902469949
