22
Coordinates from ORCA-job NEB_reactant E -32.769367647130
  C           1.33561290082444     -0.02734283104341      0.36621756245619
  C           2.20023885286666     -1.01203890064259      0.61115743416410
  C           1.72063679299054      1.39985147869412      0.14399938381856
  H           0.28267505975573     -0.26179272119001      0.32204295309865
  N           1.82695335785434     -2.32945432922061      0.88618526190361
  C           5.16903692209414     -2.01282068734694      3.50681049201764
  C           4.08415576903045     -1.55810116046318      2.90381950738169
  C           4.08462001166214     -0.42978164321337      1.91735208324614
  O           3.56528246696446     -0.81052673147723      0.64950997569306
  C           5.18910316843354     -3.13773020141620      4.49202425406365
  H           6.14190474582430     -1.57506410784016      3.32779433826909
  H           3.12129838274043     -2.01448984329397      3.08765686674299
  H           5.10412502745101     -0.08960352266668      1.71692084324758
  H           3.49702167619023      0.40716998441588      2.32171108052518
  H           2.79941020453290      1.49250258757695      0.04845961192706
  H           1.38288113416865      2.02730499477616      0.97104057162327
  H           1.25675312166935      1.77727994994145     -0.76685760586148
  H           2.54779891408303     -2.99939596810666      0.65836585997375
  H           0.91963213869387     -2.59138027234822      0.53213592696462
  F           3.94526137846542     -3.67951058792700      4.69133958974904
  H           5.54489519531340     -2.79368014494170      5.47195734025116
  H           5.83590277839097     -3.95239534226661      4.14125666874440
