22
Coordinates from ORCA-job NEB_product E -32.810330084780
  C           2.65623247068749     -1.06246998574156      1.35120586250810
  C           3.04468443451673     -1.97753981842651      0.19255193629689
  C           2.45844346451674      0.35449683199243      0.81889630959610
  H           1.72996291444881     -1.41985683125760      1.81025748993420
  N           2.30044052215691     -3.10184697157735      0.08923931360641
  C           3.77892376750559     -1.09923077595945      2.41125960603439
  C           3.37719025086537     -0.31880960817565      3.62773531450581
  C           4.00968879536049      0.75197971938586      4.06726318426118
  O           3.94255497021253     -1.72110478646532     -0.57871892546431
  C           4.10218630786969     -2.54436258292113      2.80498293948639
  H           4.68562290837944     -0.67288519482166      1.97249220943132
  H           2.51118902241059     -0.70377246176709      4.15020882235547
  H           4.87320672210526      1.14832297496598      3.55846589436730
  H           3.69148581746380      1.28021990314888      4.94983450464429
  H           3.34244897110259      0.66066243610465      0.26497049274013
  H           2.29198415880489      1.05058926316673      1.63734326846538
  H           1.60351024954185      0.38812950852857      0.14747504710144
  H           2.53708691729513     -3.77280325030291     -0.62388335615780
  H           1.65108205351743     -3.37659272049879      0.80495882846710
  F           2.95685594112132     -3.23106133744081      3.14463863293862
  H           4.75851495049942     -2.57707071161896      3.67999379134466
  H           4.55830438961792     -3.09059360031831      1.97402883353693
