26
Coordinates from ORCA-job NEB E -43.533885632550
  C          -0.23242899522592      0.98721519667226     -0.61545206583684
  C          -1.57815007346308      0.99808028275879     -0.17306099998549
  C           0.04790084978205      0.49938995749784     -2.01096418755652
  H           0.31112932088904      1.91466160944228     -0.44794555716231
  C          -2.01570241018613      2.07352952880168      0.78288052388761
  C           0.49735331105678     -0.21370927337689      0.73022807408865
  C          -0.31905169865833     -1.34654335295330      0.62215852914162
  C          -1.70905365430285     -1.20842108284908      0.86008075775467
  O          -2.26377931876996     -0.09674557807675     -0.23327401928525
  C           2.00357863201621     -0.32121363352414      0.60243067382839
  H           0.23558676070370      0.46731902335223      1.53893734320054
  H           0.01264237576390     -2.18329169761403      0.03160799621521
  H          -2.00615366133760     -0.69698317361380      1.77209471503307
  H          -2.32880314398912     -2.06919496214940      0.64357428339262
  Cl         -0.47043986020290     -1.13693586741400     -2.38905551024260
  Cl         -0.85481657243444      1.60079693946995     -3.13754380565474
  Cl          1.75985272827289      0.68042108440119     -2.45713073977584
  H          -3.10138576344487      2.09836932236834      0.82565995761701
  H          -1.64360255642008      1.85447031204712      1.78831590692761
  H          -1.64079188135873      3.04607952866189      0.47972624620865
  C           2.51956730900047     -1.56739488326551     -0.10690170978591
  H           2.40243538246273     -0.31791405058843      1.62204140755127
  H           2.39728611839839      0.56939354320453      0.11214213925656
  H           2.28516412986045     -2.46016911840059      0.46750862800281
  H           3.60012515745356     -1.50266099286814     -0.20914119175376
  H           2.09153751413383     -1.66854866198405     -1.09891739506701
