26
Coordinates from ORCA-job NEB_reactant E -43.578001180830
  C           1.27185228346084      0.44285539829876     -0.12253112788329
  C           1.55009793666215     -0.40249834756264      0.88441671692433
  C           0.99324534265941     -0.01732980489077     -1.49856351030145
  H           1.23465072874006      1.50318849867732      0.04872265275120
  C           1.83589999019272      0.10064858789595      2.26364141462468
  C           4.13653613585600     -2.67444927442862      2.91978100206554
  C           3.51061933867294     -2.57599909198648      1.75879934971253
  C           2.02179650931748     -2.64943844611165      1.58572247586950
  O           1.53680126602099     -1.72335854884676      0.62699223040111
  C           5.62072335954384     -2.64581328477640      3.08992209274374
  H           3.56737392869455     -2.81699429347148      3.83083795452790
  H           4.06126196961009     -2.43698266103904      0.83817694743931
  H           1.50588259535906     -2.53694472494666      2.54639214112119
  H           1.75149037256795     -3.62213527415578      1.15892541415836
  Cl         -0.45909942787918     -1.06668367400476     -1.56782043872189
  Cl          0.71804843888167      1.36013035600561     -2.57752279735415
  Cl          2.35515496289796     -0.96914123488011     -2.16347478948442
  H           1.10020374150135     -0.28844749254140      2.96685331356399
  H           2.82359439155255     -0.22301990946377      2.58872544769293
  H           1.79266242705211      1.18421681531271      2.27737037623149
  C           6.12778642140075     -3.95975267599676      3.68423065535300
  H           5.88796501475949     -1.82606590505872      3.76324275986467
  H           6.10104940437285     -2.46629914650706      2.12687716037578
  H           5.66744685082869     -4.14446023292265      4.65230235282408
  H           7.20624614011719     -3.92423258469646      3.81610358158830
  H           5.88630987715648     -4.78969304790236      3.02437662391157
