77
Coordinates from ORCA-job A2S E -108.418734550070
  Ru         -0.44401396175499      1.88147398977417     -0.20002830415689
  H          -0.23298885760592      0.37604384670026     -0.50006943162734
  N           0.63879068820666      1.56336242984401      1.56019065994434
  C           1.97927170669124      1.45169610866846      1.51418462830030
  C           0.03924151567240      1.53318051618929      2.76278721788164
  C           2.74976412163428      1.35580825594494      2.66512212808422
  C           0.75907754220352      1.43833941996121      3.94520844622432
  C           2.13918321276369      1.36122884949462      3.90559585296960
  H           3.82237620017771      1.27546583057500      2.57814751901225
  H           0.22904785894213      1.43277476384704      4.88475075823878
  H           2.71945505638391      1.30127240852287      4.81289496220364
  P           1.63798204651948      2.33559481836080     -1.05569953044216
  C           2.24435746580232      1.61245091696140     -2.70307516711105
  C           2.32442673012476      4.10708816642081     -0.86121183392394
  P          -2.18048618613884      1.50049053896877      1.16660204301702
  C          -3.55417210234938      2.77652859848026      1.30591195179110
  C          -3.29624177059982     -0.00123996465316      1.36499402600903
  C           2.64200264343276      1.39742033579329      0.17598877707936
  H           2.62160920120382      0.35265796449506     -0.16183631680280
  H           3.68436010847672      1.72192509796560      0.22950889084933
  C          -1.45653380262166      1.62804586869077      2.84401301952417
  H          -1.86467778987413      0.84526282354977      3.49557456875306
  H          -1.75814587458350      2.60311525651353      3.25411120515446
  C          -1.38115734189872      2.15888053851990     -1.75640819100685
  O          -1.98976884879905      2.32571760341380     -2.72957190177044
  H          -0.63503983172243      3.36287683540585      0.24160643849494
  C           3.73936190451588      1.29628708749366     -2.75537779616183
  C           1.48728773590993      0.30038562320772     -2.91438344113073
  C           1.83858616374232      2.56814021862044     -3.82621496178755
  H           3.99440402117083      0.51287079585694     -2.04599643918602
  H           3.98014639651036      0.92882243416464     -3.75295495082071
  H           4.36310616212768      2.16139172887541     -2.56357292477382
  H           0.41277328632888      0.47563692658693     -2.92279803530947
  H           1.77692309270237     -0.13741526970857     -3.86928730055471
  H           1.71843201864275     -0.41615663409640     -2.13095886444094
  H           0.80502904835636      2.88787552919086     -3.68285845388434
  H           2.48113338000681      3.44358886818139     -3.86880351435333
  H           1.90627016063990      2.06015402844365     -4.78795099331395
  C           2.26402808267760      4.43134834287538      0.63521799898494
  C           3.76014192128673      4.33122313410775     -1.33127225053213
  C           1.37915811977100      5.05844435070625     -1.59687850304235
  H           3.01756613364693      3.88474449854905      1.19979240186044
  H           2.44067263063961      5.49577241769782      0.78729311293901
  H           1.27948707400160      4.19859124680821      1.03845052613647
  H           3.85312467894493      4.25186829821980     -2.41035337762158
  H           4.06410830576618      5.34009762455021     -1.05075070297580
  H           4.45164332926330      3.63643046968312     -0.85851452926172
  H           1.50450952149052      5.00265294195741     -2.67387155071624
  H           0.34570347960283      4.81037906199737     -1.35602463367761
  H           1.56720669103569      6.08628203248877     -1.28864546612975
  O          -3.45203430176067     -0.50802465456250      2.44550459971568
  C          -3.90739479935379     -0.49009391284075      0.08829049822095
  H          -4.89759626417776     -0.04497543000236     -0.01737761401863
  H          -3.28509115735885     -0.18829986380110     -0.75638441120463
  H          -4.02987365742086     -1.57186075076452      0.11052524929065
  O          -3.78838873533613      3.29513324511687      2.36423258046962
  C          -4.19729279730607      3.13077511125096      0.00537360699888
  H          -3.53223081143441      3.84039096709923     -0.49143124990978
  H          -4.27647244941695      2.25756615184237     -0.64090926870495
  H          -5.16586553822985      3.60264267322962      0.15840970833268
  C           1.33971116525761     -2.13296886923489      0.12783236302322
  O           2.43352434907446     -1.75204395006646     -0.24053398763767
  C           0.91939857302225     -2.00253938030024      1.54316576557090
  C          -0.41770828449638     -1.96522005044556      1.93082161677954
  C          -0.75023042471757     -1.86533113906665      3.26900338887593
  C           0.24344747959016     -1.80945274295615      4.23314038987041
  C           1.57647923097421     -1.83339090873868      3.85619753932464
  C           1.91169365428482     -1.91878727753351      2.51941381937442
  C           0.35763875533931     -2.76005073582699     -0.82166331559998
  H          -1.20061772594575     -1.99704126440538      1.18875083690196
  H          -1.79017212629117     -1.83375825563082      3.55764233121922
  H          -0.02141011892943     -1.74581342226074      5.27846537146910
  H           2.35312846972238     -1.78653364367984      4.60540074039786
  H           2.94588557689819     -1.94019221120207      2.20733553963205
  H          -0.14657271598195     -3.60859132686814     -0.36754803615513
  H           0.86960844149302     -3.06580987316887     -1.73092260954951
  H          -0.38318685656681     -2.00440606004898     -1.08331321962383
