77
Coordinates from ORCA-job A3R E -108.382008290890
  Ru          2.17566634537316      3.29044906578303     -0.09445265714112
  H           0.79504609278067      2.06282381984679     -0.23519113559184
  N           2.44327021550760      2.11458809048831      1.63231166372907
  C           2.91785503243751      0.83601273110231      1.43733495290793
  C           2.02905654989886      2.48618720344048      2.85075332422736
  C           2.93026746777539     -0.07160986319981      2.53742522354649
  C           2.05706898216985      1.64315335910767      3.94243612698870
  C           2.51960926952682      0.33105860281620      3.77102772250588
  H           3.28730666695770     -1.07505076756831      2.36172904470363
  H           1.71868973657758      1.99171766106670      4.90396631010276
  H           2.54084759273424     -0.34652228785513      4.61165262311552
  P           3.63861298658181      1.72396905174155     -0.99097461154571
  C           3.33402473904043      1.02407433407073     -2.72747114291513
  C           5.49438050104226      2.16179823185344     -0.79825764161030
  P           1.07915837970514      4.63461973541082      1.41541755177291
  C           1.78543883249068      6.36822127573069      1.65254355229236
  C          -0.71054591803179      5.13710770538500      1.69490533613821
  C           3.31730667718674      0.43061245734256      0.16391648608855
  H           1.20494220856989     -0.13378105369350      0.05714402438698
  H           3.76400667658373     -0.54729640499619      0.04245132017105
  C           1.49061414537863      3.88171646254909      3.03470260114039
  H           0.59861686714783      3.86850306882793      3.67245804728574
  H           2.24417375878636      4.52323948588886      3.51181478528032
  C           1.92314677479676      4.27634970383109     -1.62638483769994
  O           1.78210774647287      4.94539389345779     -2.55963575731753
  H           3.36144902935797      4.16742017239135      0.25923750915790
  C           3.76136973046924     -0.43636490062485     -2.85517492190653
  C           1.82369715517789      1.10278085756083     -2.96863231193501
  C           4.01568695879053      1.89358377724980     -3.78193040902731
  H           3.18983611041080     -1.06099844848608     -2.17266070633942
  H           3.56183530559765     -0.78002148808473     -3.86992477941308
  H           4.81878020233067     -0.57467254006835     -2.65424457604738
  H           1.46500232582213      2.13016302114723     -2.87054078358692
  H           1.59310225205435      0.76623479062835     -3.97899988251516
  H           1.27795213014532      0.46449944247423     -2.27870869630203
  H           3.79870768177652      2.94526489355068     -3.59712796429581
  H           5.09178990180005      1.74732509361624     -3.79633737695068
  H           3.63419447424374      1.63645270437551     -4.77001514233312
  C           5.70543829659387      2.34841747407808      0.70709222212271
  C           6.42442715122087      1.04479463438736     -1.26622770203721
  C           5.81860063078902      3.48048904258820     -1.49890851950241
  H           5.55898638366349      1.41245235101777      1.24300280695786
  H           6.71914515374311      2.69627650296440      0.90032153744899
  H           5.00925902099645      3.08873238404321      1.10338221683483
  H           6.42516106007653      0.93706905302942     -2.34739525915585
  H           7.44433388376201      1.27261157821715     -0.95629841328142
  H           6.14101047205771      0.09634867848044     -0.81275956244973
  H           5.92213894300783      3.35947866226583     -2.57196446224341
  H           5.02809201171603      4.20666381068265     -1.30304198270986
  H           6.75643166598979      3.88050511793341     -1.11529530214165
  O          -1.32840289306042      4.63551756278057      2.59618724662054
  C          -1.27027106883449      6.13270601382679      0.72713329216976
  H          -1.02196333433342      7.13224739485539      1.08670177040642
  H          -0.83401981139055      5.99955928884397     -0.26153975010033
  H          -2.35380552191124      6.04205427811746      0.67779007885341
  O           2.00514504195583      6.76073908880289      2.76618228928275
  C           2.09214413891603      7.11559762780524      0.39808465212868
  H           3.00260872772828      6.67524475351506     -0.01510908452292
  H           1.30914046661915      6.97970722435248     -0.34482780518107
  H           2.26258782592044      8.17039868704687      0.60191309479251
  C          -0.08168238266096      1.32386035865896     -0.13507286867566
  O           0.35696410113032      0.02061380615274     -0.40169167584323
  C          -1.12582756488704      1.72334550757206     -1.14893848775042
  C          -1.25646030295784      3.04434666069649     -1.54862719891382
  C          -2.24691912920109      3.41550677520294     -2.43852648076575
  C          -3.11493539450497      2.46134803647208     -2.94208504073045
  C          -2.98537484846920      1.13937481252938     -2.55230983513172
  C          -1.99866714156516      0.77037853440722     -1.65606437391694
  C          -0.68466894327993      1.40922334341346      1.27222697277993
  H          -0.56118069381555      3.78626121892398     -1.16603460323343
  H          -2.33642153909651      4.44702322475961     -2.74635270324547
  H          -3.88647683412282      2.74797431957504     -3.64112617933809
  H          -3.65656691599221      0.39119055392941     -2.94721929679250
  H          -1.88529116028390     -0.25803236258778     -1.35085834512206
  H          -1.57181951916940      0.77878013885030      1.30548854551928
  H          -0.97482334163715      2.42821955646997      1.51944852782962
  H           0.01780177981944      1.04305136718116      2.01915680797037
