77
Coordinates from ORCA-job A3S E -108.383698034950
  Ru          1.99528998796530      3.34012866672192     -0.21098770453094
  H           0.53899143600896      2.24906585994636     -0.25855733047232
  N           2.37946146139507      2.32610647744173      1.59782892523151
  C           2.76675761402097      1.01319177416230      1.49102733742159
  C           2.11283124329040      2.84172669124339      2.80451046480838
  C           2.84241716786620      0.21620095285609      2.66627113890001
  C           2.20105956000038      2.10478465086294      3.96747985356886
  C           2.57151277189238      0.75824905855802      3.88671973390216
  H           3.13391486185999     -0.81794834913173      2.56113004054105
  H           1.98389754217337      2.56623933479409      4.91630625673466
  H           2.64234690867733      0.16344346667116      4.78530080770219
  P           3.37111964317955      1.65517994549584     -1.04102564724419
  C           3.01913306227161      0.82700077555870     -2.71312733119006
  C           5.24984635908784      2.03369267782218     -0.91709726677925
  P           1.14849474679835      4.88849047090507      1.26258476885257
  C           2.11197964379099      6.51004454911379      1.14905800069690
  C          -0.42891862679582      5.80848763555379      1.72072093915265
  C           3.02250241409127      0.46752255332971      0.22344568298131
  H           1.15242201522769      0.09994261355367     -0.01976329430696
  H           3.44602287535758     -0.52794798889021      0.17106571937471
  C           1.72653283742261      4.29339232394388      2.89131004875079
  H           0.94957995862284      4.45375362552065      3.64674964631966
  H           2.59985807192834      4.90450289896060      3.16449589561147
  C           1.56701458071966      4.18139887451271     -1.78862208667696
  O           1.28366559605422      4.76179618308328     -2.74942619781054
  H           3.23488293085617      4.20648736520931     -0.07821801923342
  C           3.36246638514685     -0.66098445620346     -2.70876075422013
  C           1.51852161157009      0.97269843945134     -2.98085409854947
  C           3.74956033642321      1.56070529089738     -3.83651678241829
  H           2.74209393987853     -1.19320966737931     -1.99134347990095
  H           3.16469898786371     -1.07709781676905     -3.69636314809767
  H           4.40571870894822     -0.84106938317345     -2.47015792086855
  H           1.22588042622905      2.02450436025484     -2.96247975202621
  H           1.28370218526649      0.57672457592852     -3.96873076022430
  H           0.93049212171027      0.41765409358470     -2.25519787227081
  H           3.58867514687281      2.63450156882758     -3.74591524326563
  H           4.81565572967752      1.35564068295519     -3.83400099580856
  H           3.35524937803705      1.23785014454293     -4.80003607411120
  C           5.50385123126276      2.35961476004647      0.55792166480395
  C           6.12214941312766      0.83423993761935     -1.28230013129780
  C           5.62025251327826      3.26231657549704     -1.74761269755972
  H           5.31325143813090      1.49600290634211      1.19253163743368
  H           6.54204828921079      2.65823856468861      0.69684354909372
  H           4.86711243426991      3.18208509585034      0.88666606785659
  H           6.09416571006995      0.61156096163115     -2.34517567066285
  H           7.15737424713061      1.04931677013040     -1.01743430077898
  H           5.81135097995252     -0.04798812576504     -0.72487404642346
  H           5.73413332079890      3.02825616378516     -2.80051763164029
  H           4.84955871043824      4.02687943581874     -1.63883559650054
  H           6.56439633105352      3.67447643605227     -1.39372386534616
  O          -0.72922737237655      5.94103462762370      2.87508680843561
  C          -1.20094005799397      6.36324257017700      0.56048147698361
  H          -0.94915874651835      7.41847931266420      0.45055591999461
  H          -0.94908538248322      5.83654283569839     -0.36064536474606
  H          -2.27049529986172      6.29952051960704      0.75581293223178
  O           2.69977267694136      6.91576694954236      2.11355032966336
  C           2.12489262323847      7.16189383768481     -0.19629570558571
  H           2.99521642944968      6.77495062854817     -0.72941030311034
  H           1.24222399686262      6.90162636264805     -0.77572835493573
  H           2.23320008016217      8.24045888443698     -0.10032506930769
  C          -0.26466829539747      1.45332579143811      0.01475240522767
  O           0.19979979284707      0.17924523379226     -0.29732219542181
  C          -0.60884111197182      1.59533006781179      1.48562801719385
  C          -1.13952201399261      2.78117075816193      1.97919924277223
  C          -1.46777143784339      2.90737972713350      3.31611876641156
  C          -1.27085233441781      1.84349329450737      4.18028944547150
  C          -0.76395790815290      0.65216418782080      3.69363363617671
  C          -0.43950462803646      0.52598171886053      2.35472259433867
  C          -1.49024730374280      1.72906091200955     -0.85924034533012
  H          -1.32800743664388      3.60700995648506      1.30276535753574
  H          -1.87073244758290      3.84049499441403      3.68206025952687
  H          -1.51971102366633      1.94255820084509      5.22620989106844
  H          -0.61773422720517     -0.18675113317326      4.35757297626039
  H          -0.05871022210534     -0.41106860175001      1.97712051595129
  H          -2.26000268177418      1.00003841756715     -0.61502198976805
  H          -1.22736757615802      1.61771869765938     -1.90804405945471
  H          -1.87935433168748      2.72933084537286     -0.69383966710583
