77
Coordinates from ORCA-job TSA2S_3S E -108.378778979770
  Ru         -0.80498030840292      0.34090834806999     -0.45691142998722
  H          -0.30964609825360     -1.34968782550216     -0.52694034144031
  N           0.27021415898589      0.33403710522624      1.35996883770997
  C           1.61970398158584      0.22090777496055      1.27178784520151
  C          -0.32033788573328      0.32164286556159      2.55823767721857
  C           2.39422273328724      0.11064359324994      2.44030324713790
  C           0.40189643700215      0.21762246528443      3.73610474803944
  C           1.78648458080322      0.11564351633953      3.67094685332019
  H           3.46542074659500      0.02009140633197      2.34697369458235
  H          -0.11396566309918      0.21535397480833      4.68212922446972
  H           2.37022777540747      0.03730182294615      4.57560448389871
  P           1.26138424907385      1.01715158402588     -1.28300608906585
  C           1.91637375274678      0.41734353987596     -2.95850326739067
  C           1.70038163370879      2.86650562171422     -1.05754383588034
  P          -2.55402165940777      0.04768447346637      0.99346257759148
  C          -3.80762185390213      1.45614128140770      0.87398329554137
  C          -3.90075622242077     -1.17960011283336      1.47929569613693
  C           2.21845553221926      0.12536722062002     -0.03932349061923
  H           1.98005766128253     -1.21148149126588     -0.36135108163146
  H           3.29843007548042      0.25744321158682     -0.05817900378537
  C          -1.81565072669978      0.44038237234982      2.62313963698718
  H          -2.23229315318392     -0.21948786588376      3.39246208624692
  H          -2.10839613848850      1.47303425535642      2.86550004191697
  C          -1.74732553007656      0.29583114842425     -2.03521863350155
  O          -2.39536602878585      0.30244705879388     -2.99361426807328
  H          -1.17949079047716      1.81676952628156     -0.26024814675684
  C           3.41517141632744      0.12353440172267     -2.93022652228388
  C           1.18172448789006     -0.88667950798135     -3.27721712132951
  C           1.56440541281069      1.41825952702218     -4.05876285589559
  H           3.62439036290287     -0.70546980156574     -2.25880836207457
  H           3.73833317289233     -0.16571801172676     -3.92980785208541
  H           4.00205090881600      0.98381988404122     -2.62466844504889
  H           0.10321230915033     -0.72429227612337     -3.31160075772658
  H           1.49890217614465     -1.25654533826023     -4.25168119056092
  H           1.41400669063267     -1.65106106681912     -2.53879379313706
  H           0.51568958554001      1.70429904401510     -3.98093320339661
  H           2.18442747438522      2.30913508981683     -4.02038308921196
  H           1.71688250556804      0.95414140133805     -5.03295345703238
  C           1.49195894387071      3.18614533142607      0.42569986312237
  C           3.15031874548236      3.19633680715999     -1.40592613216180
  C           0.72914852521530      3.72770722596202     -1.86619917520768
  H           2.20771390138386      2.65868403965884      1.05379063863970
  H           1.62505733987309      4.25456504805387      0.59202357265803
  H           0.48189687234683      2.92071869557476      0.73907063497908
  H           3.34916334570128      3.10475194108575     -2.46957484066790
  H           3.36002815238137      4.22686210017573     -1.11922796905638
  H           3.83691326208349      2.55265853628513     -0.85853165325770
  H           0.98657236096577      3.75879256320119     -2.91926855278321
  H          -0.28336443728359      3.33483477399513     -1.76346511831560
  H           0.73942335813765      4.74980601569775     -1.49001712686005
  O          -4.12663350220113     -1.38928366066735      2.63914483064357
  C          -4.65042427279852     -1.78426970866106      0.32972284616112
  H          -5.59722137425800     -1.25513388077471      0.21625967922266
  H          -4.07583758690692     -1.69967192807338     -0.59382422963504
  H          -4.88212645773363     -2.82773257092433      0.53926197043338
  O          -4.00873952682735      2.15060886804309      1.83215145029370
  C          -4.42749576742490      1.65057152594339     -0.47130065844693
  H          -3.74143849258773      2.27192117674798     -1.05015156328482
  H          -4.53698402068466      0.70600757454287     -0.99951339917405
  H          -5.38022521532756      2.16940965510521     -0.38693383659183
  C           0.25175352524692     -2.42118262665277     -0.28845517499898
  O           1.54216921992299     -2.35706301029885     -0.64118273499535
  C           0.03283797583298     -2.67993782695541      1.19406335926185
  C          -1.24076568367184     -2.77398571161758      1.74057786520794
  C          -1.41645814546231     -3.02293356924889      3.08903159997944
  C          -0.31471133001525     -3.18546283021706      3.91231540047782
  C           0.95773822856775     -3.11660457576445      3.37334861570804
  C           1.13016474524522     -2.86976549250656      2.02361393098401
  C          -0.50224775848926     -3.45712104202159     -1.13430961484610
  H          -2.10903636881374     -2.68314101622249      1.09775452897438
  H          -2.41576582037770     -3.08443897249089      3.49593107072142
  H          -0.45030132153351     -3.37449823365990      4.96696193703571
  H           1.82255939710358     -3.25518939937588      4.00577223117045
  H           2.11921649273493     -2.82894855152901      1.59151254122219
  H          -0.08736251987019     -4.43945454465970     -0.91540803529050
  H          -0.35320353330972     -3.24643318971858     -2.19036610828527
  H          -1.56688901882597     -3.46154975329433     -0.91757635112143
