24
Coordinates from ORCA-job NEB_reactant E -36.388984438000
  C           0.93851634674008      0.27426647466660      0.24635803067380
  C           0.87892833120799      1.57874275008793      0.51122235230753
  O           0.31989880896134     -0.73472380711852      0.95399410887948
  H           1.50618976386957     -0.05367555965586     -0.61772368969012
  C           1.51016707045119      2.58476088633399     -0.41561418698170
  C           1.85174996787778      0.82334115396300      3.40622002767146
  C           0.54216439069938      0.65526332686587      3.40294497760296
  C          -0.39541706671127      1.43944254990359      2.53082505689399
  O           0.23377885842412      2.21425851138004      1.54038185157201
  Cl          2.90420697279280     -0.11260653993352      4.39716876527265
  H           2.36689300634458      1.54717563241669      2.79504128838129
  H           0.07165723083957     -0.08348999637799      4.03383891219343
  H          -0.94396891603156      2.16328365025064      3.14585958519567
  H          -1.11645793561404      0.74713279669676      2.07949202999581
  C           1.06161832081489     -1.92882361707499      1.01405183919426
  H           0.41745445274894     -2.66984346924559      1.48391410010934
  H           1.96948279734495     -1.80286520101736      1.61407496422298
  H           1.34239312938119     -2.27135089020345      0.01133657428260
  C           0.48004571673557      3.15327628524021     -1.39180584277348
  H           2.32499733559473      2.11689241544879     -0.96788526702727
  H           1.91448574274955      3.39722148434752      0.18979890969409
  H           0.07092217496156      2.36022171440238     -2.01291472224596
  H           0.93966450363019      3.89963476098078     -2.03520257443548
  H          -0.33397100381311      3.61916468764248     -0.84327709098935
