18
Coordinates from ORCA-job NEB_reactant E -34.918315341310
  C           1.96858906430269      0.00638526578767      1.03253234648486
  C           1.67808268573328      1.24238990077775      1.41429218120151
  C           0.98848750318458     -0.88088415760277      0.34085572451161
  H           2.96359678258668     -0.37095167271672      1.19594013420105
  F           2.61579841627373      1.99909423059840      2.02198566038510
  C           1.91899281344241      5.02387393282556      0.63924324960589
  C           1.13363712846492      3.97391756045735      0.41176614620121
  C           0.40502666480387      3.23392453630662      1.48900051242967
  O           0.47568711948470      1.82235479254016      1.31096561549869
  C           2.58052760353352      5.71023490137673     -0.39869856580303
  H           2.08568258148294      5.41130808323062      1.63627389139174
  H           0.99377379254330      3.59149176515724     -0.59096292563955
  H          -0.66692491634502      3.45149669854133      1.43281483271607
  H           0.77586890298949      3.51623157245804      2.48164247321099
  F           1.47176543280383     -1.25772515701271     -0.89407982992390
  H           0.03839884088176     -0.36775709473805      0.17075567141298
  H           0.82763027847851     -1.81097863885853      0.89824003895422
  N           3.12677930535479      6.27389348087131     -1.23376715683911
