21
Coordinates from ORCA-job P E -42.264009772750
  C          -1.15032595833297      0.56323034628901     -2.28683731954222
  C          -0.64773397787007     -1.65141676232318     -0.31796034319246
  C          -1.30291688689903     -1.84688280766545     -1.64717558043003
  C          -1.51242338596762     -0.87716112412483     -2.52140909550648
  C          -0.76763967581574      0.82108802744294     -0.82312534866666
  C           0.07671089612958     -0.30946711680113     -0.25359113907804
  H          -1.60819825781973     -2.85549357784898     -1.87992224129933
  H          -1.96500633988563     -1.10038081124922     -3.47679765973301
  C          -2.31551106094049      1.45064838801493     -2.70560183172848
  H          -1.40346698051364     -1.70071598967889      0.47058644618696
  H          -0.29862026177522      0.82978418715322     -2.93079185449638
  H           0.06692901249282     -2.45811937148689     -0.13609072110852
  H          -1.67038319475227      0.89421711992651     -0.21132327268347
  H           0.34868456155239     -0.08447961863389      0.78433085486731
  H          -0.22058107245676      1.76283176865892     -0.74555889684403
  N           1.37900083470895     -0.42337994096097     -0.97858901024301
  Br         -3.95666063625466      0.92790842467186     -1.77258031997011
  Br         -1.97391264714536      3.33757210680440     -2.31577713909252
  Br         -2.65389771277103      1.31805078070291     -4.62741011057762
  O           2.05478271843454     -1.38757122556982     -0.72336963991731
  O           1.67853002588191      0.45810719667853     -1.74423577694458
