21
Coordinates from ORCA-job TS E -42.155017329760
  C          -0.58860686468207      0.37285624893278     -1.03662843679160
  C           0.74518744972826     -1.92317968588557      0.11346345883943
  C          -0.59149804511338     -1.86885685305796     -0.07230744701865
  C          -1.24272263977856     -0.77338676907455     -0.68477757881677
  C           0.01572344763501      1.01606332182453      1.01301076858423
  C           0.79377490021212      0.05477013346963      1.57219800986499
  H          -1.22543518925766     -2.61598620668695      0.38324623516162
  H          -2.32486913357637     -0.78826032260215     -0.70221125423873
  C          -1.32275174936876      1.50094999570287     -1.66519202121604
  H           1.19091390696437     -2.71290041868321      0.69486247432292
  H           0.46880261428469      0.35989377708636     -1.26595961633261
  H           1.42690545295263     -1.33975294789599     -0.48035216801443
  H          -0.99686157827674      1.15145727881899      1.35029080455637
  H           0.47014847866949     -0.62954345874760      2.33810458781731
  H           0.50644628455917      1.85192719465973      0.53955259816285
  N           2.20330658199566      0.08752780023434      1.36731997267189
  Br         -2.96822692194787      1.95416839645491     -0.71188751417745
  Br         -0.23644513608140      3.11897498826993     -1.79851927816705
  Br         -1.83948350944810      0.99020517085587     -3.52363654893755
  O           2.89170870328210     -0.54341733665777      2.14106801729693
  O           2.62398294724742      0.73648969298182      0.42835493643234
