27
Coordinates from ORCA-job NEB E -47.604665964460
  C           0.12425249995723     -0.06659644261962      1.18984465646164
  C          -1.13240580931760     -0.57018233677413      0.84271455819730
  C           0.25909107336857      1.03929044108297      2.17252374898994
  H           0.88463128562796     -0.82640921998051      1.32571060744224
  O          -1.13025168289413     -1.89560825640954      0.54873906775481
  C           0.57597974851072      0.77792482427138     -0.78230109738487
  C          -0.61868558873423      0.64529082780385     -1.45974954769708
  C          -1.80820616792438      1.15643762865432     -0.91153474594362
  O          -2.12274084966816      0.14395116628829      0.49239865558103
  C           1.77278968070744      0.02593659140822     -1.29831095632854
  H           0.77783823874952      1.70768350546491     -0.27048601300360
  H          -0.70587654703542     -0.18162337861710     -2.15601172962913
  H          -2.73542936541559      0.99168483920178     -1.44261809924915
  H          -1.76160760478646      2.10366253843020     -0.39347255906837
  Cl         -0.89947700984317      2.35775355052318      2.00531453982028
  Cl          0.00801498901818      0.34221219943499      3.83632147323343
  Cl          1.88973620228416      1.74652727189350      2.18521315552974
  C          -2.31033832009111     -2.41750141842373     -0.03736571153840
  H          -2.14219285823485     -3.48687129534259     -0.13803303580159
  H          -2.49206902212399     -1.97091300207153     -1.01726024490457
  H          -3.17480934864974     -2.22869623356657      0.60313899624684
  C           3.07260144895781      0.28436342825520     -0.54999387759034
  H           1.90921159753296      0.32329149360593     -2.34347655898213
  H           1.55243506729912     -1.04429363620080     -1.29961627728631
  H           3.28373111728439      1.34953746524169     -0.50386448049777
  H           3.89715774902776     -0.20658010276588     -1.06185560459734
  H           3.02661947639302     -0.10027244878839      0.46403108024557
