27
Coordinates from ORCA-job NEB_product E -47.671757650800
  C           3.23612986091262      0.05167634454355     -1.85374969834291
  C           2.20691946147109     -1.00783960098579     -2.24811018746137
  C           2.69213384518517      0.87469988348192     -0.69279089840238
  H           4.11186383311855     -0.48072248602874     -1.46965370229976
  O           2.70700483068803     -2.22407923274857     -2.03426509337250
  C           3.68193547791373      0.89336614449371     -3.07231059305417
  C           2.58167560710115      1.73941381864050     -3.64294785472065
  C           2.69015508983472      3.04033493532659     -3.83494501909410
  O           1.11324196899733     -0.79920180543775     -2.69191853091572
  C           4.22311420705716     -0.02229826853591     -4.18553143625861
  H           4.49523168924091      1.54533793947950     -2.73679558073778
  H           1.68902568085618      1.20636361182962     -3.93688530468480
  H           1.89748023297607      3.61723815596337     -4.27848289725913
  H           3.57438585204129      3.58604555350435     -3.54702161582652
  Cl          1.17627117192084      1.70628840145573     -1.04762355497288
  Cl          2.39846258535097     -0.22672103715589      0.68879163020617
  Cl          3.89003013289001      2.07981827520662     -0.17228839683709
  C           1.85368291175791     -3.31925462426764     -2.34722972625183
  H           2.40299268219018     -4.21754018655486     -2.07939048906367
  H           1.61293283941152     -3.31780812620944     -3.41196905644764
  H           0.92696503668507     -3.24883385127838     -1.77533692065184
  C           5.43716059824645     -0.84696828744231     -3.77323160578375
  H           4.49736489521738      0.61989990624079     -5.02533706381648
  H           3.42560180324574     -0.68451589817177     -4.52910153749527
  H           6.19798965831215     -0.20997623618799     -3.32753791950906
  H           5.86746564502426     -1.33001245055645     -4.64727242729443
  H           5.16848240235351     -1.62311087860475     -3.06136451965184
