27
Coordinates from ORCA-job NEB_reactant E -47.639727384940
  C           2.64454669650964      0.04420396020051     -0.41542959074191
  C           2.06628007843989     -0.51846632887457     -1.49493206497774
  C           2.44189134544340      1.39256733228325      0.12763558594378
  H           3.32781633301688     -0.58226754736941      0.13462164645846
  O           2.35194058409687     -1.81929690463592     -1.70907522487181
  C           3.97501121619677      0.68451568801457     -3.92066959235837
  C           2.67332546858697      0.63475350207743     -4.15694672485162
  C           1.65091011415184      1.12463915815263     -3.17536824531435
  O           1.18824474613259      0.03820023458562     -2.34779444283386
  C           5.02860811369381      0.11671191563836     -4.81278396007076
  H           4.33736204248200      1.14545423758070     -3.01062913584195
  H           2.29100733067352      0.16982548015427     -5.05626886279133
  H           0.74526336175155      1.47528810826620     -3.67209199578901
  H           2.06527411572448      1.92385868786608     -2.55787999712339
  Cl          0.80878868186547      2.03614798810023     -0.14345970033873
  Cl          2.73428347893917      1.38261696304199      1.88442593856075
  Cl          3.62091967502145      2.59149347427129     -0.56731909218054
  C           1.74456032425390     -2.45826374699434     -2.81949422684754
  H           2.07212741895193     -3.49418838334817     -2.76809858155543
  H           2.07451793795396     -2.00858370783010     -3.75896804798843
  H           0.65591954553966     -2.40596757371523     -2.75593080061371
  C           5.83056987464220     -0.95536043614049     -4.07379806507423
  H           5.70558429078396      0.91767393473466     -5.12141530681954
  H           4.57344680751409     -0.30911436633518     -5.70912929050281
  H           6.31186318474824     -0.53118016008159     -3.19579823556460
  H           6.59763419454837     -1.37036833431403     -4.72292767680356
  H           5.17700303833742     -1.76169317532877     -3.74817430910776
