22
Coordinates from ORCA-job NEB E -60.265757809970
  C           0.95708068121612      0.16123191248051      0.51891647210034
  C          -0.43030568574400     -0.05893686301748      1.02690502139296
  N           1.38840620256805      1.61400027109702      0.41210185794883
  H           1.68040515449352     -0.24521072206524      1.25380675806762
  C          -1.19023264684829      0.84185125820699      1.96025117590667
  C           1.11887984237909     -0.57073793563575     -0.78649252758267
  C           0.53430522070768     -1.75291473748403     -0.92618125134767
  C          -0.33204362894296     -2.27481438006141      0.17450589926891
  O          -1.02223680221638     -1.24770574149664      0.86621428914149
  C          -0.53052066598246      0.90629025051688     -2.17680753473739
  H           1.76720765855371     -0.12441842927968     -1.51855618952116
  H           0.63010547337493     -2.34130842605917     -1.81994219730085
  H           0.28455187107078     -2.81860648286882      0.90822269655878
  H          -1.10908208774975     -2.94660867343433     -0.19437417299934
  O           2.04397774745396      1.91298241728316     -0.54595262392143
  O           1.10344189528810      2.31919674577334      1.33755030273193
  F          -2.35360454659903      0.27899120078820      2.30080181550176
  F          -0.52649360926546      1.06428618129674      3.11101659546250
  F          -1.48509895061496      2.03712494043384      1.43879045786177
  Cl         -0.76913627008011      2.52899045685560     -1.61728719146649
  Cl          0.16938443481350      0.80497845253832     -3.75227174234366
  Cl         -1.92899128787601     -0.08866169586805     -1.97121791072288
