22
Coordinates from ORCA-job NEB_product E -60.353931590380
  C           2.21540994540175     -0.98172693260349     -1.79078914377870
  C           1.37422227454809     -1.28558713705553     -0.56937052324984
  N           2.14706453378298      0.50459110731390     -2.03377869183732
  H           3.27022433857918     -1.22940047317832     -1.62480487088771
  C           2.03807306116315     -2.35496160511591      0.35637318317407
  C           1.65668467197154     -1.81515119028748     -2.98105029597513
  C           0.26780390851097     -1.38872170160589     -3.37638358942765
  C          -0.81458559199347     -2.01209492018311     -2.94906490374619
  O           0.31081173110046     -0.81690079757255     -0.31417185548299
  C           2.61381394464832     -1.77612338273678     -4.17957161876001
  H           1.62833821309823     -2.85954573883408     -2.64743890898581
  H           0.19561902107539     -0.52585576796359     -4.01908074603504
  H          -0.76847652032374     -2.87520713760074     -2.30479732071014
  H          -1.79636739851625     -1.67864234523838     -3.23188094691633
  O           3.18396009695648      1.08967886222946     -1.87850334067153
  O           1.08226159364597      0.97589843199979     -2.30388513871019
  F           1.30310121388458     -2.61668143432325      1.42607624945884
  F           2.21021765043987     -3.50491348190468     -0.31756768505849
  F           3.24747308312540     -1.95595266333427      0.76311899530468
  Cl          1.93510958459936     -2.80731680802606     -5.46096414911984
  Cl          2.82659011562394     -0.12982017214051     -4.81947248528552
  Cl          4.21465052867778     -2.42366471183855     -3.72759221329914
