22
Coordinates from ORCA-job NEB_reactant E -60.362617206570
  C           2.03063843265682     -0.26533119442708     -0.83051940061237
  C           1.55319836801251     -1.40627887641812     -0.30131885217594
  N           1.57026040720626      0.41604505348373     -1.99467192753128
  H           2.86374015924779      0.23218160968893     -0.35570350513136
  C           2.15900114980631     -1.87898401629614      1.02714390684140
  C           1.39116451690700     -1.85548377559759     -4.17954909466700
  C           1.35341727403683     -2.49689817911199     -3.02194177434084
  C           0.21784374479369     -2.38155539033106     -2.05160690422746
  O           0.68295878926682     -2.31769364988944     -0.70453096041742
  C           2.48230097366181     -1.95200849494151     -5.18378944298414
  H           0.58792648430705     -1.19463312405748     -4.47810572396104
  H           2.15776483828349     -3.15232368389240     -2.71634476742975
  H          -0.38543926218178     -3.29449123373819     -2.06670851940241
  H          -0.41405708659783     -1.51709739193885     -2.28625978535966
  O           2.39700692990830      1.03277710558641     -2.62455473733531
  O           0.38338654838906      0.37341606642773     -2.25641147780978
  F           1.21654257622876     -2.28854832072548      1.87270753576679
  F           2.98857794975416     -2.90928674288193      0.82361498420673
  F           2.86188762524634     -0.92784609829239      1.64397914880325
  Cl          1.81211789587944     -2.63590596975298     -6.69438308644774
  Cl          3.10669213728323     -0.31117060419903     -5.52465161976489
  Cl          3.83346954790394     -2.97008308869514     -4.66609399601977
