20
Coordinates from ORCA-job NEB_product E -51.993785518060
  C           2.37555103695812      1.77611195206853     -1.80662783566755
  C           1.02033283274151      1.50165889636858     -2.42534920201735
  Cl          2.28723837385134      0.99060272458718     -0.19370910562505
  H           3.20715144837287      1.31578990690569     -2.34226312769559
  C           0.96033691130855      0.41213639223769     -3.48846223820285
  C           2.60095751039948      3.28216288437932     -1.61330350767059
  C           3.73127891370726      3.53897860595475     -0.65375499657695
  C           3.60415362694392      4.28118523850176      0.42848777664704
  O           0.00491521045505      1.99596176766775     -2.02935486878705
  C           2.89366681200039      3.94985947514874     -2.96079286869220
  H           1.67528959311050      3.71827516192481     -1.21921565600504
  H           4.67043863766936      3.07110242388659     -0.90914376210764
  H           2.67137343876388      4.75084914739242      0.69325524576012
  H           4.43128760920935      4.44621300491418      1.09597515354164
  Br          1.04292188594302     -1.26913612253508     -2.49425183474840
  Br         -0.72456908718408      0.52418973180674     -4.42023782298560
  Br          2.40631393024765      0.43341565858872     -4.76802667873326
  Cl          3.04420954385840      5.70341388840787     -2.73562058673818
  Cl          4.39939459363672      3.33553579533842     -3.68330489784631
  Cl          1.56505717800669      3.64409346645532     -4.11249918584919
