20
Coordinates from ORCA-job NEB E -48.467138685850
  C           0.86816552281353     -0.23587256268898     -0.89716767478878
  C          -0.20608295650522     -1.11838287651408     -1.02807589216075
  H           1.77595548352946     -0.64341665075135     -0.47377424539489
  H           1.03324833002883      0.45987549196062     -1.71049638223005
  C          -1.33329911019878     -0.73912713513769     -1.97775324530888
  C           0.30193420022362      0.77755247678542      0.61871591376486
  C           0.03197598500360     -0.21893439161418      1.56004452340324
  C          -0.98732726905573     -1.17978665256730      1.25202363283042
  O          -0.50356183390733     -1.92896999967904     -0.04570588918996
  C           1.37876075565840      1.77918279222228      0.92780403694349
  H          -0.55385428493108      1.26411588937521      0.15369059519673
  H           0.81473040596184     -0.51750544905521      2.24410441087482
  H          -1.95054261477872     -0.76634636834217      0.95749866020182
  H          -1.09502757167555     -1.98612204054195      1.96860328556991
  F          -2.16094132975558     -1.75059348197207     -2.22792619641480
  F          -2.09932995948861      0.26303345385169     -1.46773203177726
  F          -0.87315153914317     -0.28472030999777     -3.14937640436432
  Br          0.76489177900221      2.91342596325011      2.41939806563938
  Br          3.05760316243119      0.95269138934804      1.46184137810770
  Br          1.73585284478709      2.95990046206841     -0.58571654090266
