20
Coordinates from ORCA-job NEB_reactant E -48.496406028970
  C           1.80890270134977      0.21419402442267      0.11545634364722
  C           1.60356079765255      1.48822712424558     -0.18690172322850
  H           2.32451124692462     -0.09535698708530      1.00473448778629
  H           1.45621883658297     -0.56025163722499     -0.53837968457063
  C           0.86921816160741      1.90685220866744     -1.44702560105654
  C           2.96903858988598      4.09912448118164      3.52177491810939
  C           2.99695042114947      3.78542263896067      2.23657900209051
  C           2.66365051867231      2.42721440251618      1.71243246880838
  O           1.96495369691181      2.59997175877331      0.49511527492501
  C           3.32529422116603      5.40882726301023      4.10846316611134
  H           2.68294465904340      3.36640523793777      4.26766651508218
  H           3.26745185278398      4.50208080709563      1.47362123764791
  H           2.05433127492228      1.85966081796300      2.42737482328096
  H           3.59733421502058      1.87308800629575      1.52708773741591
  F          -0.25206062902880      2.58436373489381     -1.16772615151150
  F           1.62018173725271      2.70158339156582     -2.21996313496171
  F           0.51044624741470      0.86175819665325     -2.20075221489527
  Br          1.79907307624849      6.08913680737174      5.15511096869642
  Br          4.84126041326007      5.16011993865262      5.35162039456240
  Br          3.82803796117968      6.77197778410319      2.82681117206021
