20
Coordinates from ORCA-job NEB_product E -48.503362384890
  C           2.40328568998386      2.62659911041259      0.60809898579762
  C           1.01409366193082      2.80699513571454      0.06179526456519
  H           2.64318629071801      1.56513085616603      0.47299854160757
  H           3.12627458136645      3.19089871242137      0.01216522414602
  C           1.00374148428785      2.93141952781052     -1.49199160298561
  C           2.48545646416994      2.97643689482446      2.10072285624098
  C           3.45999629951976      2.08392078699256      2.81993090557911
  C           3.18006174491657      1.46661510917042      3.95191611941492
  O          -0.00304132988553      2.80429843401654      0.68683481287868
  C           2.87581002849963      4.43984264387842      2.30086235804304
  H           1.48634447110223      2.84828852548210      2.53965858951746
  H           4.43107685331184      1.98434721500340      2.35436702516830
  H           2.21981090918325      1.55864707055443      4.43233996357066
  H           3.90416977977343      0.84228485374117      4.44452271883044
  F          -0.21883103421543      3.04156765376977     -1.99163494930313
  F           1.71589559169285      3.99253324157237     -1.89455681294535
  F           1.57881578139714      1.84788999599121     -2.04339626402920
  Br          2.79259059567215      4.90457477379243      4.19019207205817
  Br          4.69384775125216      4.79427536574571      1.67825599855358
  Br          1.66931438532301      5.64743409293996      1.32591819329155
