24
Coordinates from ORCA-job NEB E -40.751985204080
  C          -0.18413996425747     -0.96540694175614      0.22795013287348
  C          -1.47981759421734     -0.57538842809026     -0.10385281391204
  C           0.13808971678057     -1.33160355372384      1.65246428862061
  H           0.32350479109196     -1.56907626790048     -0.51683409621083
  C          -1.92615458020320     -0.76830999359274     -1.55385605466547
  C           0.76684974385992      0.87363284599062      0.06240602173239
  C          -0.26748380440258      1.80850079774696     -0.05514094328012
  C          -1.29190658875131      1.81690811076256      0.88402864518142
  O          -2.15651055443107      0.23943886285449      0.60535458721243
  O           1.62559073509139      0.76923978013931     -0.97581374191891
  H           1.20488493016145      0.72706118594156      1.04648711159712
  H          -0.47229348377829      2.16263740712342     -1.05626974786440
  H          -2.12381187871840      2.48808165034767      0.74047977417761
  H          -1.05205853152986      1.61672286801749      1.91851633236324
  H          -0.37280610208871     -0.67179348266321      2.34794726779549
  H           1.20764337536824     -1.31955886860076      1.85079488308274
  H          -0.21899199610494     -2.34718494823673      1.82904203926784
  F          -1.15857073587923     -0.05821362237150     -2.42454244081860
  F          -1.79150976083439     -2.06816783418168     -1.92683162249483
  H          -2.97369968339692     -0.47011125978783     -1.70185862783530
  C           2.81345662899086      0.04794827854107     -0.74501194109085
  H           3.43713015036562      0.19819475252989     -1.62380713902766
  H           2.61506138974025     -1.02162285576475     -0.62432160153567
  H           3.33754379714346      0.41807151667491      0.14266968675033
