24
Coordinates from ORCA-job NEB_reactant E -40.786315673010
  C           2.11609900437078      0.25825969183103     -0.26652592387092
  C           1.68974734450801      1.30361237186990     -0.97011060842575
  C           1.97098809368328      0.11168793395387      1.20899788688606
  H           2.60208679580140     -0.55227747994546     -0.79084709593855
  C           1.88619103788582      1.32273407046846     -2.48122720883778
  C           3.86702191475573      3.82951622061207     -1.27864770626680
  C           2.61687133915959      4.14586580948930     -0.95985585697842
  C           1.85711479293318      3.41589378161445      0.10001905371809
  O           1.02431745318691      2.37047266232012     -0.43184927708202
  O           4.55365378746206      4.46710467490154     -2.25351856431512
  H           4.40677955934178      3.05068993976082     -0.74413614814438
  H           2.08910660512952      4.89249594071097     -1.52996237354043
  H           1.14905835228254      4.07763408558696      0.60186366921561
  H           2.54653989175654      2.98449114690949      0.83721458638151
  H           1.33786926297391      0.89710126055662      1.61191716205989
  H           2.94751700237309      0.15186687661871      1.69185396870336
  H           1.52874462335276     -0.85579268417605      1.44056751732277
  F           1.41336932342488      2.44727742961577     -3.04518674792658
  F           3.21640501752751      1.26193045483228     -2.79288746484100
  H           1.40587460154439      0.46591665649485     -2.98264075917739
  C           5.78248446801229      3.88062400446196     -2.61442285626846
  H           5.63132398277133      2.88199671645500     -3.03651327121857
  H           6.45834420408022      3.80978243772397     -1.75482354643386
  H           6.22279154168249      4.53041599733337     -3.36827843502125
