20
Coordinates from ORCA-job NEB E -41.315634824370
  C           0.35947192848332      0.65411988182403      0.70893697160113
  C          -0.81436011419015     -0.11803333882222      0.72537425562677
  C           0.22502942475286      2.09216127171557      0.25841371755907
  H           1.01055295120340      0.55536588599978      1.57308831781316
  C          -0.83676498722392     -1.33267118387816      1.64950858998950
  C           1.32130508063779     -0.18615312057656     -0.74530098044456
  C           0.41907260401140     -0.95626353576700     -1.49095502474920
  C          -0.82977998615613     -0.36129180243812     -1.78918309468072
  O          -1.57402327673090     -0.18264954501724     -0.31439215952123
  Br          2.80456174941349     -1.13369517039617      0.02365341464723
  H           1.67128404676710      0.75366298331672     -1.15200581794715
  H           0.43458973397360     -2.03028205944165     -1.35347249944722
  H          -1.55747869635787     -0.97270769829399     -2.30696767280635
  H          -0.81542161675143      0.66364214614272     -2.14579176306563
  F           1.44114505638349      2.64265027155852     -0.05145170873234
  H          -0.18286037310018      2.68664900395799      1.08419047340879
  H          -0.41410652132224      2.20074388207130     -0.62201251455987
  F          -0.30247052360738     -1.03487945478626      2.85527512911392
  F          -2.09578298497307     -1.75911375330784      1.86860095112001
  H          -0.26396349521317     -2.18125466386141      1.22449141507467
