22
Coordinates from ORCA-job NEB E -32.746699470920
  C          -0.63855375148987      1.29468523186181     -0.53496513078924
  C          -1.95904898069992      1.01342039449628     -0.17628087434318
  N          -0.09752783048576      0.80636374152132     -1.72459953039258
  H          -0.22582703023926      2.23863758889743     -0.20076466104948
  F          -2.41124418696785      1.75094759092264      0.91401743662547
  C           0.13717383956828     -0.01326261800935      0.87322449770760
  C          -0.47350733697352     -1.19303648525236      0.47327199579644
  C          -1.85665104877480     -1.34694821945453      0.65666963488018
  O          -2.53241549525502     -0.08079034110955     -0.38216249125594
  C           1.62703378246944      0.20820390955563      0.79294106567036
  H          -0.31009118213040      0.50189287717791      1.71860981338648
  H           0.01118693402193     -1.80638370051896     -0.27054285576487
  H          -2.29639761698233     -0.98436408065913      1.57723387500246
  H          -2.34100596148926     -2.22199590147919      0.24983026395393
  H           0.22770947338241      1.51665361828614     -2.36248215381749
  H          -0.69962556345918      0.12771482258351     -2.17156752239307
  C           2.35424606588613     -0.61083003909521     -0.26577899767047
  H           2.03489089801748     -0.03996742464095      1.77906192796007
  H           1.82843666344359      1.26882131742907      0.63024657333408
  H           2.30646877264016     -1.67157041434163     -0.03402021471399
  H           3.40145669578811     -0.31883317897862     -0.29877068414869
  H           1.91329285972964     -0.43935868919227     -1.24317196797808
