22
Coordinates from ORCA-job NEB_reactant E -32.772090906750
  C           1.01081625393009      0.24677608577873     -0.08627959930738
  C           1.81925187549487     -0.13675735173699      0.89957308574620
  N           0.02787482443994     -0.56437169886138     -0.63714428531080
  H           1.14083706056811      1.21992194496929     -0.53129734506560
  F           2.83324994943892      0.70088653726914      1.28259361931862
  C           4.66354408948984     -2.47564577971411      2.86493462498742
  C           4.09392369793804     -1.92386862595371      1.80619144162247
  C           2.72870820676638     -2.28980864847103      1.31334555147054
  O           1.73542388063097     -1.28357414318186      1.59904566563028
  C           6.01924199457705     -2.12184915833480      3.38315277248652
  H           4.14945137061506     -3.26025078273784      3.40667300418387
  H           4.59571123787843     -1.13309733448825      1.26553116319332
  H           2.35723417031215     -3.17907366369442      1.82707632304870
  H           2.74482324001480     -2.46898237976381      0.22949571028417
  H          -0.80644109583421     -0.07240839269245     -0.92104814097442
  H          -0.17810293232550     -1.37299224288916     -0.06573812934266
  C           6.94742929937402     -3.33631195369870      3.37538815104583
  H           5.92080323076247     -1.75728543133279      4.40961977660150
  H           6.44981852846654     -1.32151407990337      2.77941780468460
  H           6.53653091705098     -4.13530070608435      3.98869909817377
  H           7.92579017119112     -3.06907348613369      3.76751790787223
  H           7.07138002921994     -3.71061870834442      2.36165179965084
