17
Coordinates from ORCA-job NEB_reactant E -29.574889190000
  C           1.81351014405926      0.00188666836190     -0.00088361494106
  C           1.14568295659021      0.36202828724583      1.08857116785728
  C           2.12136316242533     -1.41747831395863     -0.35085284662934
  H           2.15813158185878      0.76651652262094     -0.67728049862751
  Cl          0.84103543065964      2.04842422569124      1.40286841498338
  C          -0.31745885435458     -1.44797846317422      5.16889647775793
  C          -0.49457508121029     -1.29457542605022      3.86963725845748
  C          -0.04144089758636     -0.08252398095222      3.11999459708322
  O           0.68217186769790     -0.53231792053140      1.98926739276630
  Br         -0.92982583131634     -2.96724148046162      6.10392211680603
  H           0.16482557034219     -0.72297273574748      5.80542743669405
  H          -0.97547383569666     -2.05541558626357      3.27260480431803
  H           0.58561003441866      0.55931637174946      3.75192058335860
  H          -0.92042822587360      0.49581981692465      2.79783901421155
  H           1.73194462541505     -2.08829368191674      0.40790838479456
  H           3.19846650593752     -1.55680165421045     -0.43242225090511
  H           1.67876084663328     -1.66969264932745     -1.31361843798542
