17
Coordinates from ORCA-job NEB_product E -29.598631136140
  C           1.70075907862647     -0.70262144704617      1.66803764624345
  C           1.25137550323323      0.58854533479150      1.03669204841243
  C           1.35182118280387     -1.87433493639188      0.75433459985877
  H           2.78493891051524     -0.65549854255313      1.81786463595094
  Cl          1.96047722947053      2.00388737944096      1.83775774087397
  C           1.03816938354310     -0.77738203259843      3.05701413785751
  C          -0.44676360938395     -0.87520992293269      3.00939930811847
  C          -1.24313988484530      0.04818401935723      3.51537338784781
  O           0.50689299490691      0.74085825569010      0.13130136328656
  Br          1.75609322128060     -2.34814420633125      4.02151428875964
  H           1.35102145971242      0.07979378927168      3.65743552169276
  H          -0.84859067553718     -1.76486775169829      2.54632029710114
  H          -0.85788577136588      0.93430381065940      3.99348106221376
  H          -2.31387080230820     -0.04148846090686      3.46498144087873
  H           1.56102749435679     -2.81739301841133      1.25327415611502
  H           1.94949914756838     -1.82377371176458     -0.15217332113695
  H           0.30387513742296     -1.84155855857628      0.46859168592599
