16
Coordinates from ORCA-job NEB_product E -33.461846130440
  C           2.04443909804314      1.35265082072924      1.58853725310781
  C           0.86522870619643      2.25644015480808      1.53229918391760
  H           1.74401811619913      0.38210849843431      1.18345391006963
  H           2.84359582496017      1.74607579555504      0.95494599642464
  N           0.72301905035586      2.97085332164778      0.15328109417830
  C           2.55094401291686      1.16817344220578      3.02892300424271
  C           3.52673586074978      0.03328323749144      3.11843205403351
  C           3.24808292032642     -1.12694789395017      3.68000826265612
  O           0.03356473509449      2.49086934545960      2.33836543513522
  F           3.17862731099256      2.34152261651260      3.39984151000724
  H           1.70875824472283      1.03684386912967      3.71956274387647
  H           4.49470384967095      0.23725342057846      2.68357008754687
  H           2.28685917611086     -1.32733970376656      4.12427153539017
  H           3.96898026106039     -1.92446305567543      3.71614703158000
  O          -0.26536706798933      3.63658201803123      0.02084837500526
  O           1.59850990058945      2.78489411280892     -0.65668747717155
