16
Coordinates from ORCA-job NEB E -28.806313504090
  C          -0.00737625192026      1.51728169791810     -0.18205234450673
  C          -1.27765006913280      1.11949079326434     -0.49586805599784
  I           1.41753342943947      1.71579509141937     -1.74548449441889
  H           0.17075696423140      2.23036208291679      0.60671851899265
  I          -2.69270938244055      1.56282634246821      1.15974822897855
  C           0.59564907249062     -0.42129188836081      0.74185419382469
  C           0.22630812189095     -1.22302854523094     -0.34476230967400
  C          -1.09348390462632     -1.43686154677401     -0.67585220710150
  O          -1.63728382932030      0.28881237263475     -1.32350032328012
  N           1.89520398300362     -0.25279882682706      1.07947776440813
  H          -0.10605155087928     -0.27656075885182      1.55407784372473
  H           0.99107129915257     -1.44922563354678     -1.07554517629369
  H          -1.85385493131708     -1.42470659855349      0.09153761130887
  H          -1.33750266719180     -2.00021589730129     -1.56066046047547
  H           2.58260407062017     -0.33115520508917      0.34484253949321
  H           2.12678564599962      0.38127651991380      1.82546867101743
