16
Coordinates from ORCA-job NEB_product E -28.835174319420
  C           2.94391011642658     -0.70796218367231      1.54522257309386
  C           1.52527398847456     -0.66129938587228      1.11853997858183
  I           4.16970443576262     -0.07429796201344     -0.12310238568504
  H           3.14219272580025     -0.00141649986456      2.35182995470455
  I           0.18004082450301     -0.66285232702871      2.83331834338369
  C           3.32222992354911     -2.12390157778244      2.04386620833423
  C           3.04781260985911     -3.15917414770496      0.98458976189855
  C           2.09246057545030     -4.06455049973971      1.07350329984187
  O           1.06847534133897     -0.64905915333705      0.03382735966082
  N           4.68981123413847     -2.08913166478444      2.51917034685818
  H           2.68763889519406     -2.32451070230541      2.91760816583344
  H           3.70719381568116     -3.12952999035959      0.12632347895217
  H           1.42926341244356     -4.11306095050899      1.92270341010100
  H           1.93029511341647     -4.79501197637545      0.30002642412216
  H           5.34311161216287     -2.02282990440201      1.74429414363286
  H           4.90808537579889     -2.92561107424866      3.04547893668582
