23
Coordinates from ORCA-job NEB E -51.076458524300
  C           0.34753924532437     -0.31273132694984      0.90577855039587
  C          -1.02350362694167     -0.53985503559183      0.70180668034918
  C           0.71776680066910      0.66924417158519      1.99679552668672
  H           0.97327510995853     -1.19871750132136      0.93867604741985
  C          -1.59406911247910     -1.87329725829582      0.32410326810960
  C           0.87005133138945      0.64001671706675     -0.67945344534871
  C          -0.29013870467679      0.96443300910131     -1.39487662986997
  C          -1.34395902018966      1.54991886838848     -0.61714603849792
  O          -1.81973897916568      0.45510350800150      0.41567751146551
  C           1.93753090920282     -0.16525938395312     -1.37417064634539
  H           1.30779434963673      1.46213073001972     -0.12251619869557
  H          -0.56361269192164      0.36871269170351     -2.25373539124627
  H          -2.26212248342745      1.76853285082276     -1.15299633834089
  H          -1.04404444430125      2.37520128717515      0.02728104942573
  H           0.10293090468628      1.56445989441821      1.96203332284749
  H           1.76903986371223      0.93733014817709      1.94042559001805
  H           0.54917674540856      0.18239576903869      2.95736144063520
  Br         -2.14079271645871     -1.90256449540722     -1.58215503040770
  Br         -0.44649131735187     -3.38814371447239      0.65424109036449
  Br         -3.23752008103706     -2.12711549056124      1.37152863666228
  Cl          2.55932701157338      0.77159756432465     -2.76646447731644
  Cl          3.30903256793842     -0.48282506543875     -0.28260195410795
  Cl          1.32252833845101     -1.71856793783143     -1.96959256420315
