23
Coordinates from ORCA-job NEB_product E -51.124765115290
  C           2.77121774902890     -0.19966993239191     -1.82836777791370
  C           1.45930315629315     -0.76152840406274     -2.32363855394802
  C           2.47660026244504      0.67342377133822     -0.60141043888231
  H           3.45890385486941     -1.00038008499759     -1.54461075534175
  C           1.21414306741219     -2.26303310884211     -2.12711866781320
  C           3.45973416532096      0.66842574287160     -2.91294320554752
  C           2.57563616103925      1.77317383589849     -3.42414545778285
  C           2.75959059460570      3.04227617555646     -3.11405845522188
  O           0.53853712064499     -0.09904101785341     -2.71082735155976
  C           3.95735825383236     -0.18467569972479     -4.08025555426536
  H           4.34612812543928      1.11298899028230     -2.44713333195688
  H           1.75787163889193      1.47377253048018     -4.06188087369884
  H           2.10663881534851      3.81119752942730     -3.48709134730721
  H           3.56747199000835      3.36584792904780     -2.47801246293294
  H           1.75026747483385      1.44133851130704     -0.85537794268737
  H           3.39325502448644      1.15108144626830     -0.26618672867081
  H           2.08366788745970      0.07476820518101      0.21607691368948
  Br         -0.24279442820325     -2.82437359939719     -3.26688559442248
  Br          2.71470121381955     -3.45114908452994     -2.36466960943293
  Br          0.63815781864524     -2.39145402505118     -0.25528369399489
  Cl          4.63889997240960      0.86617434410011     -5.34584626557487
  Cl          5.23799603909403     -1.30886061458526     -3.55314576309895
  Cl          2.63101404227481     -1.12880344032270     -4.79268708163497
