23
Coordinates from ORCA-job NEB_reactant E -51.113063070310
  C           2.03626772740672     -0.12805749329460     -0.28892997623888
  C           1.47603946984107     -0.30019482465587     -1.48429966338824
  C           2.19301570420989      1.17908893447515      0.40363063891911
  H           2.39883675199617     -0.99611734594055      0.24416377535196
  C           1.30130630947483     -1.67922493400819     -2.06702435310093
  C           3.95659955628354      0.67217971499341     -3.99212475578342
  C           2.64394159882833      0.84516989626306     -3.99965356724274
  C           1.90602196466547      1.55912661536955     -2.90830920829395
  O           0.96442776489703      0.70234594186668     -2.26490971727821
  C           4.73450024851024     -0.04076783147110     -5.03944735847301
  H           4.57431899946880      1.08521495469003     -3.20588728875557
  H           2.02889198248936      0.43123700309622     -4.78604094274227
  H           1.29067790049083      2.35717576089662     -3.33233832223881
  H           2.60838806555294      1.97891255752080     -2.18089137767925
  H           1.57854108961191      1.94770465959709     -0.05793103013056
  H           3.23763089707819      1.49248281280448      0.38991567896970
  H           1.89926835175468      1.06926964640837      1.44581886107345
  Br          0.16618076092877     -1.63804893300165     -3.62555326235944
  Br          3.05205338343081     -2.43082013442098     -2.60043270998647
  Br          0.51145510461347     -2.91866767450119     -0.78275698077526
  Cl          5.61539042801533      1.17309440012292     -6.02099290067019
  Cl          5.93814573040960     -1.11002246463322     -4.26726133772056
  Cl          3.73500021004201     -1.01658126217700     -6.12244420145646
