18
Coordinates from ORCA-job NEB_reactant E -43.184603615660
  C           1.75861845207348      0.06318442982310      0.54917679930278
  C           1.45244295244694      1.29015245701185      0.09898649924263
  Cl          1.78211052432517     -0.50194525181535      2.17515564159974
  H           2.03662989176359     -0.69328321131995     -0.16813643426105
  C           1.52517455603998      1.45202151620248     -1.31869573356374
  C           2.51061245365988      2.18891833320405      4.06455229604319
  C           2.32911833467735      2.46600136988993      2.78414313447501
  C           0.98864201679187      2.51019894895694      2.11778912754509
  O           1.07103388731528      2.43528935877988      0.71056928639308
  C           3.86063296398651      2.17182138802628      4.70668602686561
  H           1.70386973470703      1.94782159368252      4.73987738602366
  H           3.17123826423203      2.70076719523820      2.14561673203393
  H           0.53561712739634      3.49273501377185      2.29677340917434
  H           0.31815296928467      1.74312439815972      2.51922028734388
  N           1.58639029976398      1.57555786980687     -2.45457651226741
  F           4.85847032634140      2.44874496313193      3.85832814008791
  F           3.94936568648812      3.06398908959819      5.70934003208174
  F           4.13837955870640      0.97290053785151      5.24869388187962
