17
Coordinates from ORCA-job NEB_reactant E -33.697773226380
  C           2.39472571526562      1.02580962028214      0.16406820732936
  C           1.40748877672605      1.82537345087927      0.55266414824798
  F           3.28477056390886      0.43503259520972      0.99087970965991
  H           2.57274314431292      0.78099067166995     -0.86932626754153
  C           0.46982632354304      2.42878143600043     -0.46570990351592
  C           3.56580451932297      3.42607795382366      2.30693764861177
  C           3.14363579169308      2.42212799589787      3.04830416418985
  C           1.78526482442738      1.79563679211359      2.91592509375147
  O           1.03660991037210      2.23282400929881      1.79805119231937
  I           5.47074357576120      4.28448373062561      2.51619481124295
  H           2.97380339525612      3.89118341291036      1.53746464884839
  H           3.76465221941881      1.97891694558629      3.81206701167083
  H           1.17393258956855      2.07857287176403      3.78066664576750
  H           1.88750423573336      0.70376899564745      2.91530489044674
  F           0.79838312743342      2.06957995965309     -1.73969145088804
  H           0.50446246891251      3.52294122178136     -0.41200775902218
  H          -0.55565118165599      2.08969833685637     -0.28019279111846
