24
Coordinates from ORCA-job R E -31.827395420040
  C          -0.68244439772418     -0.26878169793806     -3.19976363871523
  C          -1.00535096427519     -2.88029184471761     -1.74438399296247
  C          -1.89836474831617     -1.89783538321542     -1.80251684469720
  C          -1.73357441730717     -0.62390903333649     -2.47224579694493
  C          -0.97921577482041      0.97674135977895      0.55822411221704
  C          -0.06504247298538      0.06562996808135      0.23628323360234
  H          -2.84914654301167     -2.02339722341037     -1.30152817645730
  H          -2.53638497155257      0.09019356821965     -2.35784012717411
  F          -0.61749708316664      0.94275549787616     -3.77997487805152
  H          -1.21384834386264     -3.79390505826263     -1.21478769927411
  H           0.19430128683065     -0.85852228280060     -3.41452238856876
  H          -0.04060975056760     -2.81180336676704     -2.21520327649341
  H          -1.80979639737773      0.70941992533248      1.18470621494342
  H          -0.16019148993700     -0.94188141118098      0.62082082094318
  H          -0.94670058450719      1.99471185451752      0.21715254598121
  N           0.99959723628820      0.21435597113593     -0.62288775366325
  C           2.11784522284733     -0.68259271556856     -0.46883169099511
  C           1.34455343712784      1.53844148786803     -1.07819918573488
  H           1.75611014868442     -1.67445104071324     -0.20289871115311
  H           2.82130546264712     -0.34780650056146      0.30654359919642
  H           2.66109932362962     -0.75082095882491     -1.41338522446396
  H           1.74820047337473      2.16780886806628     -0.27417998621756
  H           0.46126454248282      2.02154814317241     -1.49096159309198
  H           2.09202080549881      1.45951187324860     -1.86697956222469
