22
Coordinates from ORCA-job NEB E -33.651928867050
  C          -0.50526772657484     -0.17928677415717      1.15721396197079
  C          -0.78867011820931     -1.53992336517887      0.86872637539921
  O          -1.58431419426624      0.59440672932321      1.55379380875713
  H           0.38453730058906     -0.03172298924935      1.77053827798480
  C           0.22828806107460     -2.47808671173919      1.11082364400267
  C          -0.10053166397258      0.49350346691535     -0.53656156688508
  C          -0.83976488092922     -0.26942518769817     -1.46514188997780
  C          -2.12619934473704     -0.76866853232513     -0.96851464891567
  O          -1.70253894727287     -1.83723071194531     -0.05866258577440
  C           1.40180658082055      0.57648915695467     -0.73431431385095
  H          -0.54851012131117      1.46076306879942     -0.30970012514326
  H          -0.29190538315506     -0.96912923631515     -2.08654297110123
  H          -2.74393367376425     -1.27960566949559     -1.70365256495775
  H          -2.70471997265459     -0.02633002140412     -0.41240828583523
  H          -1.28234080549175      1.46548885552907      1.83375445674784
  N           1.04015514320253     -3.23775494624110      1.41070235287654
  C           2.05098607401457      1.70495245213393      0.05863959948883
  H           1.59965417541870      0.73223330541549     -1.79747025018815
  H           1.85328801318469     -0.37917692197916     -0.45591170948104
  H           1.62285387150115      2.66560407102407     -0.22188218985081
  H           3.11858654555032      1.73708031109870     -0.14296897996558
  H           1.91854106698276      1.56581965053440      1.12953960469915
