22
Coordinates from ORCA-job NEB_product E -33.688476906220
  C           2.48265149458435      0.75634878787017     -1.07688253964313
  C           2.95600641636895     -0.68004430573325     -1.17674728262236
  O           1.25329136578609      0.76673726275677     -0.39688901496823
  H           3.24093222004775      1.32806437078440     -0.51763060370477
  C           1.87340740634659     -1.64411987801720     -1.07913369495047
  C           2.36789069549709      1.35587319547104     -2.50876901857772
  C           1.47177119783454      0.48160830758935     -3.33811914516367
  C           0.22064254012883      0.77288868935797     -3.63766303141733
  O           4.10212154681997     -1.00638011237654     -1.35433028439080
  C           3.73504550569235      1.53523964849287     -3.17987042266125
  H           1.89806691201616      2.34218037382578     -2.39394828800995
  H           1.91782007026662     -0.44275389708622     -3.68190270499392
  H          -0.39132826749822      0.11127246418505     -4.22485757675045
  H          -0.24727616744796      1.68732892181681     -3.30953031421539
  H           0.81211136005618      1.61138511047602     -0.54109462666681
  N           1.03785104617599     -2.42256037985366     -1.01196083892798
  C           4.55259389161977      2.67652687564802     -2.58584930341405
  H           3.55910608121157      1.73951423022271     -4.23868634944001
  H           4.30387226341586      0.60619033046663     -3.11208491217830
  H           3.99351579990058      3.60978354099994     -2.61700072960231
  H           5.46837765192690      2.80885633936187     -3.15602770643784
  H           4.82962896925007      2.47126012374148     -1.55482161126325
