18
Coordinates from ORCA-job NEB E -42.716317532610
  C          -0.24599162795841     -0.26730178991452     -1.34467805954719
  C          -1.38936118917819      0.53848532896885     -1.14869386497694
  O          -0.42061201518593     -1.60568323184279     -1.20352015583802
  H           0.45118703502040      0.05102253249732     -2.11801120358384
  Cl         -1.21018178709044      2.18998874919799     -1.76442286486682
  C           0.63597838329754      0.29862869531917      0.33213520449701
  C          -0.31160341857207     -0.03007768225205      1.30600040781464
  C          -1.52183256853481      0.69437249657281      1.31230756107736
  O          -2.19498040565453      0.35276954030771     -0.20133190136626
  C           1.93633229725994     -0.45703636406074      0.32538425790733
  H           0.78828113434701      1.34326932283353      0.07667431404498
  H          -0.29437785209649     -1.02532663688614      1.72484454660205
  H          -1.45975173108815      1.77329198031505      1.21319427862885
  H          -2.30171542510638      0.36045262417394      1.98187940830963
  H           0.37481215063705     -2.09325837255964     -1.45032285676151
  F           1.79711706647964     -1.76863732163434      0.56703135897778
  F           2.57820932444980     -0.36868100423590     -0.85617118821015
  F           2.78849062897404      0.01372113319975      1.24770075729110
