18
Coordinates from ORCA-job NEB_product E -42.755912654650
  C           3.09271960126075      0.21329401170241      1.45355993634779
  C           1.60728934065454      0.52618439442626      1.49424461293981
  O           3.36049113283743     -0.27252901596657      0.17579520691334
  H           3.64276991964222      1.14615832517814      1.66274443839089
  Cl          1.18677610681860      1.41645987704191      2.96176278802694
  C           3.39667789414300     -0.80746481194444      2.58885904690758
  C           2.73779111726890     -2.13237088526775      2.31555554114895
  C           1.98579721693927     -2.76122564383157      3.19691450429357
  O           0.78170440760501      0.24884162001331      0.70305299127356
  C           4.90486299657499     -0.99495508685099      2.73064564339149
  H           3.05338966445300     -0.39284949916405      3.54203024614267
  H           2.91551796522657     -2.53548277410720      1.32894691992034
  H           1.80075753461019     -2.36180228706667      4.18046775902550
  H           1.52676007158576     -3.70623850813558      2.96787905934007
  H           4.30321326806880     -0.44769985128849      0.06615695323767
  F           5.48111910925640     -1.50752685199841      1.63044502874163
  F           5.53483080435216      0.16884671879596      2.96660054845882
  F           5.21183184870240     -1.80993973153626      3.74223877549937
