23
Coordinates from ORCA-job NEB_reactant E -59.548828392050
  C           1.35255777266750     -0.50952380667675     -0.08732394292046
  C           1.91738584184015     -1.59334839540998      0.46727213053658
  C           1.98411444437944      0.42825206881993     -1.03747029466427
  H           0.32729529991196     -0.27484183564229      0.15748271001766
  C           3.35482527097014     -2.04417016065115      0.23615010231951
  C          -1.13516030484997     -3.18944732160999      3.71566893365416
  C          -0.38934157149070     -3.34678744263141      2.63425479016451
  C          -0.01831668879900     -2.22536006068166      1.71654428472193
  O           1.32762943966007     -2.42999546470983      1.32337170884892
  C          -1.55925140078316     -4.27518753568781      4.63766763075552
  H          -1.51504077398026     -2.21803964602347      4.00206881921716
  H           0.00204687163864     -4.31161349799005      2.34803549657920
  H          -0.12958010337210     -1.25360113263622      2.21295775017042
  H          -0.66918012006141     -2.25248781776692      0.82934179208732
  Br          0.75804210289771      1.88309293063752     -1.45318069961933
  Br          3.64426744117476      1.24894315817962     -0.34271509240822
  Br          2.43066382486064     -0.45160477060702     -2.76996390914389
  F           4.12029378378515     -1.67222756542217      1.28687542744915
  F           3.40515426146225     -3.38822156202054      0.17145819052578
  H           3.81540207687197     -1.64854285641200     -0.67976003887350
  Cl         -3.34841707987701     -4.35827585896002      4.64500262475320
  Cl         -0.93093561032604     -5.86859105302097      4.20592848053804
  Cl         -1.01345477858071     -3.88012037307682      6.29343310529060
