22
Coordinates from ORCA-job NEB_reactant E -51.924861857910
  C           1.31943178866003     -0.57121594460775     -0.24505137538047
  C           1.87201378807721     -1.61726233798548      0.38790864080920
  C           1.96652345355018      0.49006773717849     -1.04444974946487
  H           0.24205229256837     -0.49172537926589     -0.20729056997743
  C           3.36059944352412     -1.94454452340273      0.45364488280370
  C          -1.01283486824492     -3.47974485396979      3.35443789083965
  C          -0.63400711763133     -3.62033120927055      2.08257650931314
  C          -0.21090515293028     -2.47239588139594      1.23363770655103
  O           1.21890626684478     -2.53667933532709      1.09705952725406
  N          -1.47478797841126     -4.49066413260627      4.15187546993402
  H          -1.05817638890314     -2.49777553927888      3.80712703922747
  H          -0.57579685887008     -4.59686844518249      1.62859688839958
  H          -0.48227126049388     -1.51908702370033      1.70202077599662
  H          -0.65826339740962     -2.53203072488028      0.23323310791351
  Br          0.68071010702149      1.93800825234312     -1.32609447924830
  Br          3.53670874369386      1.30915738320222     -0.21157087220468
  Br          2.47273902364527     -0.15829417682541     -2.85363947871683
  F           3.95689639856337     -1.31906072202831      1.47815263625341
  F           3.55142476719495     -3.25077354936733      0.63407812156624
  F           4.02902012995649     -1.61284650383748     -0.65430262958890
  H          -1.28441364702959     -5.42924574217455      3.83855237866071
  H          -1.42486953337600     -4.35618734761726      5.14709757905911
