22
Coordinates from ORCA-job NEB_product E -51.908562826020
  C           0.88151435573154     -1.35440948471580      0.33725665199053
  C           1.72291845152354     -2.55077980576309     -0.04928828034641
  C           1.61540895041340     -0.03075155486763      0.46611352488797
  H           0.20478793412322     -1.24697631297269     -0.52389788999296
  C           2.98869971166161     -2.95428089945634      0.76679914236583
  C          -0.07471114816803     -1.67013902733962      1.56521075900122
  C          -0.46198505308037     -3.12553878245013      1.51107368771051
  C          -1.59309848543702     -3.56538860366538      0.99508903384927
  O           1.42645443385216     -3.24862427572199     -0.97718389359878
  N           0.52481700511616     -1.24997835873533      2.80162372642596
  H          -0.96540177906163     -1.05537291549146      1.39362287309312
  H           0.25553278701795     -3.80981963321074      1.94644383182187
  H          -2.31959451688800     -2.89583037510799      0.56475361130057
  H          -1.83656918802140     -4.61292274311144      0.97759250824395
  Br          0.28869698625176      1.38979704744381      0.63940885416952
  Br          2.85247038751523      0.18079805132510      1.93046422696183
  Br          2.60531469398711      0.29729876821616     -1.20651211384953
  F           2.80241649143069     -2.92018254739796      2.09256308169705
  F           3.32908957866426     -4.20432300974912      0.46142527821232
  F           4.03364725437751     -2.17415966141743      0.48024179121184
  H           1.06213284461150     -1.97606614638693      3.25735822072800
  H          -0.14584169562119     -0.86734972942400      3.45134137411633
