19
Coordinates from ORCA-job NEB E -33.651984464350
  C          -1.61552045844294      1.41507236212157     -1.13778739345781
  C          -1.95916022145961      1.15483652527604      0.12124345466095
  O          -1.28112381611097      0.44758975704893     -2.05682843578670
  H          -1.60387102557742      2.44239124420256     -1.46983408908682
  Br         -2.41797071915644      2.62785075925756      1.22343333691821
  C           0.76497562389309     -0.08674011121838      1.03749353871767
  C           0.11334539441427     -0.97821174604925      0.30088673011001
  C          -1.38014796479346     -1.13246540515149      0.34732815909100
  O          -2.06424271095300      0.01371763623396      0.82902928343262
  O           2.08059541917527      0.20193030078432      1.11470772540557
  H           0.23259570662726      0.56469190273221      1.72001717409681
  H           0.60085188896502     -1.65051859614512     -0.38670014244480
  H          -1.67024835797411     -1.92218958658230      1.05015334735474
  H          -1.74988732598704     -1.39837010424132     -0.64920637708921
  H          -0.95899589771869      0.87050457799576     -2.85810320692406
  C           3.02905920684889     -0.51150642576192      0.34748400146555
  H           3.73444314799197     -0.98900841578102      1.03154606854638
  H           3.56860627012645      0.20230430837528     -0.27958710818682
  H           2.57669584013144     -1.27187898309740     -0.28527606682333
