19
Coordinates from ORCA-job NEB_reactant E -33.656078999030
  C           1.25905845946861      0.10833624705741     -0.06975924151997
  C           1.78149028004355     -0.05535325352888      1.14372081194436
  O           0.34087420335789     -0.76208790631366     -0.57443572594075
  H           1.56121773382504      0.94821126238738     -0.67968561924034
  Br          3.13367881370590      1.22602850779653      1.66862120785848
  C           4.20035522543235     -2.17749996438083      3.45255700592357
  C           3.68383098966965     -2.03312228610892      2.23542376945168
  C           2.22548130490958     -2.22532059579149      1.97223509426616
  O           1.48463446308948     -0.98742248581245      2.04924886324276
  O           5.46872927030847     -1.98840666895344      3.85454537605186
  H           3.59048496094413     -2.50310111485863      4.28588346229824
  H           4.28216285181141     -1.70196272504940      1.40040851157257
  H           1.76145176656784     -2.84773030169755      2.73848718591077
  H           2.05633693635545     -2.66671953589717      0.98306065533421
  H          -0.05338931651242     -0.40303785072891     -1.37523411664331
  C           6.38441047670223     -1.47421690384276      2.91179059257332
  H           7.32236580371000     -1.34036567358242      3.44704170373651
  H           6.04400214045347     -0.51144649789787      2.51963443806155
  H           6.53262363615736     -2.17368225279696      2.08335602511833
