19
Coordinates from ORCA-job NEB_product E -33.664175584530
  C           3.17739553302120     -0.04059445505783      1.33092304592255
  C           1.70538071420873      0.22763175007478      1.33616575247291
  O           3.59598661845667     -0.37222095264576      0.03933234138088
  H           3.74038331631773      0.84520116781017      1.64560903608679
  Br          1.09742504087077      1.20498595073212      2.90344872731488
  C           3.46964105214983     -1.17527615626537      2.39737781900490
  C           2.99242537746074     -2.49147190379978      1.85056071428019
  C           1.92127386906045     -3.11426516124361      2.30412490303255
  O           0.92213588464016     -0.13888812671911      0.52499686159557
  O           4.80541750454195     -1.13834039059788      2.81572513063424
  H           2.91307969761624     -0.92656703641214      3.30848561367995
  H           3.56856514584585     -2.89759957123561      1.03151821272550
  H           1.33592078749861     -2.72185400962373      3.11975150454700
  H           1.58643254519113     -4.04520926842210      1.88018952762143
  H           2.88125504888175     -0.83862059908456     -0.41640851692925
  C           5.79509792472628     -1.53046828892451      1.88220581919637
  H           6.74241811984413     -1.22881834486428      2.32502381359722
  H           5.66661109127709     -1.03015578151600      0.92048884165331
  H           5.79935472839068     -2.61516882220481      1.73698085218301
