24
Coordinates from ORCA-job NEB E -36.535609668240
  C           0.94771787592319      0.57503089763620     -0.05426748015983
  C          -0.42462554975344      0.55112110884906      0.24714038875121
  C           1.43743393524575      1.25978991058854     -1.31175717107161
  H           1.61296344950602      0.78518836798108      0.78108130861171
  C          -0.87406637944249      0.39226963245787      1.68213242689142
  C           1.23520047944038     -1.29772584269078     -0.43680249187428
  C           0.25573099771378     -1.57684568883391     -1.40585245879357
  C          -1.10375005935836     -1.38249784778256     -1.09403983438330
  O          -1.25569148400091      0.24412732505256     -0.69749137279491
  O           2.52889223955050     -1.41441206198321     -0.86274775677601
  H           1.05702776718861     -1.64898818292023      0.58152103231594
  H           0.57143072300289     -1.52273740796822     -2.43640608953651
  H          -1.46956063490224     -1.80411578997439     -0.16243527042707
  H          -1.80985311602838     -1.48150872866672     -1.90708239610276
  F           2.80619274199945      1.37848519590204     -1.27285270916413
  H           1.04135162146790      2.28068243827298     -1.36135324588024
  H           1.18262708190670      0.71971634910272     -2.22549644617843
  C          -2.19767914332448      1.11216225097345      1.92720232929333
  H          -0.10581302094950      0.76790276696096      2.35832581107138
  H          -1.01085680061767     -0.67866432697761      1.88301167464431
  H          -2.06808607511123      2.18616008732874      1.81833675147514
  H          -2.56701268728658      0.90465420236925      2.92849039010295
  H          -2.93663348501870      0.78155926692749      1.20186314076223
  H           3.14705952284880     -1.13135392260532     -0.18052053077699
