20
Coordinates from ORCA-job NEB_product E -36.458487444500
  C           0.68422866674903     -0.25826933144688     -1.25517518206480
  C           1.66696916438661     -1.00686394904379     -0.39254936271463
  O           1.30515120347567      0.71034104996213     -2.05175493785168
  H          -0.07771824573066      0.19478240593783     -0.59655939216990
  N           0.96710716184361     -1.78359417570049      0.73979489288938
  C           0.01046386778842     -1.28608811147033     -2.19681408741507
  C          -0.91330748366450     -2.21329999485726     -1.47182309099672
  C          -0.74864440390256     -3.52159508932584     -1.41195121136443
  O           2.84467547933433     -1.09426125473785     -0.47959014958037
  H          -0.54593520939230     -0.69948763274066     -2.93110478185906
  H           0.78862553799659     -1.84003127673240     -2.72400285157469
  H          -1.75374480994077     -1.74170237687767     -0.97992358198668
  H           0.08546190445531     -4.01217665468398     -1.88664079672002
  H          -1.43974002893040     -4.15671184681928     -0.88653956385429
  C           1.81513470085110      1.81896717215468     -1.34293753063122
  H           2.16479371695698      2.51853499547258     -2.09851745787790
  H           2.65165659065919      1.53876841931917     -0.69605469124389
  H           1.03295632165471      2.29236582019020     -0.73799810475841
  O           1.42570566203160     -2.86160249662057      1.00343310891394
  O           0.02196020337803     -1.24147567197958      1.26330877286046
