23
Coordinates from ORCA-job NEB_reactant E -43.976515353540
  C           1.45772732583675      0.16629380538341      0.25003995613378
  C           2.30195736690543     -0.18382227667388      1.21825830498145
  C           1.83892139264609      0.98545218761144     -0.93676849675882
  H           0.42720403355659     -0.14857367044447      0.30249684363089
  C           1.85711324035212     -0.97657153733405      2.42831169803679
  C           4.44647682681491      1.08333645059541      4.47186514201796
  C           4.74394206854805      0.64641897189787      3.26203212409148
  C           4.09920281486838      1.17411565190723      2.01622961901928
  O           3.63117884577165      0.13474563698281      1.15401924670379
  Br          5.30026335933796      0.43343458478129      6.02479419891715
  H           3.71105029194224      1.84448978750252      4.67892308981176
  H           5.48688405419964     -0.12258041390025      3.10843566694309
  H           4.85917995221041      1.70131463483125      1.42622651657812
  H           3.28849105044987      1.87029001713910      2.25579420464389
  C           0.95276722075471      2.22575108424382     -1.04748050846871
  H           1.71085495487447      0.37499597298915     -1.83431112027951
  H           2.88853292066197      1.27078246908133     -0.86670479084535
  H          -0.09335681818643      1.94179068503223     -1.13234104925127
  H           1.22645768056714      2.80412898820226     -1.92587419553101
  H           1.06759660292013      2.85614871626990     -0.16883222116304
  Cl          3.16321596727646     -2.00705709301815      3.03844442570968
  Cl          1.35929435104225      0.15012017321499      3.73578735392895
  Cl          0.46354449664921     -2.01580482629521      2.07635399114965
