23
Coordinates from ORCA-job NEB_product E -43.986987225500
  C           2.10719013508366      0.47190593977465      1.69462408070971
  C           2.44052386615079     -0.99251790764766      1.87073548182125
  C           2.12793971980345      0.79179005974545      0.18571006696294
  H           1.10833415623791      0.67131307509861      2.09123226926382
  C           1.27700113822605     -1.88609995517020      2.35570111560621
  C           3.12292909912066      1.34100718705091      2.45034189438814
  C           4.50581885003598      1.31005798794948      1.90393487913520
  C           5.19337483918321      2.40268799035817      1.62372630328840
  O           3.49089208412050     -1.49131591315306      1.59395148857087
  Br          3.19829916160454      0.72415916144389      4.34424856126320
  H           2.75115331120705      2.36464333192423      2.52132328056725
  H           4.93590600641236      0.32748773331179      1.77344668578940
  H           6.19761506708119      2.35358645066382      1.24142853325259
  H           4.78388643379146      3.39030474395294      1.76644291302243
  C           1.68607018117767      2.21845097222669     -0.11279108873503
  H           1.45402320812078      0.09731986339937     -0.31816025267976
  H           3.13538549604773      0.62348744540747     -0.19815158498250
  H           0.71600039699059      2.42192867497433      0.33475680463379
  H           1.60035526186661      2.35452836179576     -1.18753137378650
  H           2.40516739500321      2.94173596754420      0.26137415745739
  Cl          1.86748450869002     -3.49606032441638      2.77788842786330
  Cl          0.37869344329493     -1.20797716827772      3.71924017877401
  Cl          0.18665624074964     -2.00782367795672      0.94502717781387
