21
Coordinates from ORCA-job NEB E -49.718033007850
  C           0.52614561780493      0.76755128626313     -0.05279308971140
  C          -0.86838395434962      0.80338337244657      0.19191538400052
  C           1.01475217462011      1.09990164448642     -1.45507852609919
  H           1.13789008455346      1.31468159354154      0.66267223593404
  C          -1.35821072985809      1.23939054444889      1.55659017507962
  C           0.97591119406539     -1.04530978083262      0.20180022174765
  C           0.01866302398480     -1.71431367050794     -0.59265609834537
  C          -1.36163208187625     -1.53215858319398     -0.33853085924540
  O          -1.65698589738100      0.07641530966322     -0.52451228403669
  O           2.27057093830969     -1.22184418117876     -0.18036990773527
  H           0.81272979714704     -1.04517907560668      1.28042964244441
  H           0.34274368657233     -2.03614994152309     -1.57003797233319
  H          -1.69591688617616     -1.65189767422177      0.68783307518076
  H          -2.03941813584051     -1.97228354787569     -1.05837278293609
  F           2.36922328493385      1.15142529429838     -1.47423692081752
  F           0.64853578585397      0.22415064448550     -2.40441394698796
  H           0.64978547375165      2.09488655152440     -1.76264191982467
  Cl         -0.92613620858982      0.04069620876080      2.84513073918693
  Cl         -0.62752825756952      2.78709227387428      2.02137874305076
  Cl         -3.11660632162441      1.40218322831564      1.54674698714121
  H           2.88386741166816     -0.78262149716826      0.41914710430684
