21
Coordinates from ORCA-job NEB_reactant E -49.750888127240
  C           1.49755869734706     -0.16892760658586      0.11743274531767
  C           1.59573192474497     -0.90872805252949      1.23230890289269
  C           1.88548664839891     -0.49430496403484     -1.28994315736690
  H           1.06324703613508      0.81084419729578      0.22207312734855
  C           1.14292905254515     -0.30170621683740      2.55594077690428
  C           2.74722299299491     -5.35296986985365      0.93642538351159
  C           3.23253605699685     -4.14620168428805      1.19906010057895
  C           2.76780864592972     -2.91062191671430      0.50304286577707
  O           2.08405018829954     -2.11699328573154      1.48510588358780
  O           3.11923535958488     -6.50216766647975      1.52872278254476
  H           1.99927536069828     -5.52592096231611      0.17552961518740
  H           3.97338838505555     -4.00398242610955      1.97367876009705
  H           2.08756795955042     -3.16911718040460     -0.31120755564160
  H           3.62125577348693     -2.34460465904915      0.11643273666830
  F           3.22236878884010     -0.71063313155572     -1.44358050144267
  F           1.27955051145750     -1.61840152292950     -1.76296576984594
  H           1.61535268657020      0.32532801825620     -1.97132746122708
  Cl          2.56999656583154      0.47988002496920      3.29221176061145
  Cl         -0.13110109752931      0.90709192053822      2.38397746053319
  Cl          0.55667180024003     -1.56178452279086      3.65310244242619
  H           3.77896666282169     -6.32747849284905      2.21297910153727
