24
Coordinates from ORCA-job NEB E -43.017472180140
  C           0.19689258279772     -0.12432624841431      0.70383350467650
  C          -0.94361582641513     -0.93304358569694      0.48598973510647
  O           0.04418080312288      1.20719676027434      1.05519745286542
  H           1.02511298936424     -0.61337507904253      1.22985374483119
  C          -0.80262611577021     -2.42792311598334      0.47530024525695
  C           0.72714769854060      0.13295683374272     -1.07451917779074
  C          -0.40358177184361      0.74257575942885     -1.64587949077298
  C          -1.61073752546453     -0.01502517985350     -1.65720490478648
  O          -1.95101584430263     -0.39017228649192     -0.14288525706104
  C           2.01543030024100      0.89975338954431     -1.09210543441929
  H           0.91153037884246     -0.90852163605496     -1.34569681103115
  H          -0.47732518068355      1.81938934451601     -1.62437395036456
  H          -1.54413776583919     -1.00718199481319     -2.10332677479982
  H          -2.49620922441370      0.51867934012159     -1.98074067780579
  C          -0.06303434222402      1.40908137558281      2.44567247243350
  H          -0.08347251856249      2.48679991451148      2.59146661880524
  H           0.79875195167692      0.98134432838495      2.97200764537526
  H          -0.98172616040183      0.96050161680972      2.83646049156165
  H          -0.52343822435200     -2.77156635956645     -0.52560991985208
  H          -1.75885709904553     -2.88333960816126      0.72066337601874
  H          -0.04806645335506     -2.75892165545440      1.18213418008917
  Br          2.68851605611418      0.88561267958610     -2.95001288469556
  Br          1.88459637350743      2.74248061831917     -0.54469213120203
  Br          3.39568491846606      0.04702478871071     -0.01153205243855
