24
Coordinates from ORCA-job NEB_reactant E -43.053469287720
  C           1.33999225583684      0.13567058893076     -0.35975317941311
  C           1.21459853428017     -1.02567371759344     -0.99937145427994
  O           1.52974228792432      1.37052382183337     -0.94971801883879
  H           1.27015084221047      0.14721341332220      0.72036314013753
  C           0.95716538540454     -2.30526481489575     -0.25983161119919
  C           3.21963876223727      1.56030997558157     -3.62555189443904
  C           2.85562985511557      0.42020674213895     -3.05881872740185
  C           1.50194013143549     -0.19616379705495     -3.23030096037362
  O           1.26782676557926     -1.26548622002780     -2.35180830916638
  C           4.52982562709340      2.21992514870904     -3.47929110091537
  H           2.53288359384471      2.10541783756901     -4.26175803346926
  H           3.53199591303455     -0.13967379683452     -2.42632554364556
  H           1.42337789857996     -0.63983457720713     -4.23030185084733
  H           0.72640836914454      0.57307080103317     -3.12698109765629
  C           2.16635492451956      2.31362330719923     -0.12117815871660
  H           3.20262401908591      2.02610991350146      0.09017145731638
  H           1.63249338530817      2.43177210752370      0.82766595269868
  H           2.15372755689824      3.25900060202579     -0.66109275055374
  H           1.73330863858080     -3.02892307298881     -0.50117915485830
  H           0.00360060428232     -2.72585085489175     -0.57348990189208
  H           0.94094508785218     -2.13781166683289      0.81139492122822
  Br          4.27443987009169      4.09682193098979     -2.93111095136343
  Br          5.71420411951605      1.39973602899689     -2.18524252902701
  Br          5.47082557214399      2.24288029897211     -5.22449024332393
