21
Coordinates from ORCA-job NEB E -37.584276132540
  C          -0.17237293136336      0.57273039952072      1.31064749352505
  C          -0.66698688792527     -0.57543325047575      1.96107523631854
  C           1.30766073304967      0.77771653984435      1.09213317971792
  H          -0.61613906309310      1.51466139401041      1.62057678905450
  H          -1.60374792512032     -0.45334181372282      2.52203240422404
  C          -0.84195542554785      0.28911700585040     -0.49539102739963
  C          -0.41069120521836     -1.02354679359245     -0.77897569383179
  C          -0.89899601617503     -2.08096371550631     -0.01083690835273
  O          -0.31323354502402     -1.74440468842295      1.62005323875125
  O          -0.44379688550495      1.38226912288362     -1.21292907359606
  H          -1.88849937540993      0.42213140326149     -0.22967687355082
  H           0.54175727800489     -1.16145392402807     -1.26578558340717
  H          -0.46847253579441     -3.05808346539284     -0.16812745624599
  H          -1.94948750999346     -2.09581959372845      0.24907158111783
  F           1.89870135769992      1.05894389471974      2.28727857712491
  F           1.96216741318606     -0.29533642037777      0.60223349140662
  H           1.51466396093902      1.63577500000217      0.43221058570671
  C           0.57087621196272      1.22296353645279     -2.18718738762186
  H           0.73259231861738      2.21757577967495     -2.59903245543835
  H           0.23951214170521      0.54827296973204     -2.98209391834388
  H           1.50644789100520      0.84622661929472     -1.76727619915911
