21
Coordinates from ORCA-job NEB_product E -37.621255713850
  C           1.48782229425595      0.10429517741770     -1.63322262561812
  C           2.61260056661873     -0.79396911589111     -1.15769478058731
  C           1.73778986183433      1.52392115642885     -1.11313578209820
  H           0.53916336313009     -0.22933051644036     -1.19976079580028
  H           3.55626527652230     -0.62771239460357     -1.69905449846305
  C           1.37775086325040      0.07398033999508     -3.17656769360855
  C           0.78457157370204     -1.24407598026765     -3.60388545224725
  C          -0.39647309455373     -1.36748904542180     -4.17759948910995
  O           2.49870726268441     -1.60009071240386     -0.28106149754675
  O           2.67079059489988      0.26274091962177     -3.71502180375461
  H           0.71492963226602      0.89595991384394     -3.49577721232728
  H           1.41730059138862     -2.10089314940203     -3.41686463794163
  H          -0.78912658173373     -2.32563761750248     -4.47119852923414
  H          -1.02517324457628     -0.51273386381252     -4.36885998742501
  F           2.87425595808911      2.06147198992925     -1.59601136845926
  F           0.73310808223026      2.34816333200931     -1.50323025472296
  H           1.78689283223805      1.56012501693211     -0.01295639217540
  C           2.66770693520454      0.60153020464851     -5.07901001016579
  H           2.11570107604909      1.53282384382556     -5.25271283840032
  H           2.22462340043226     -0.19348872401543     -5.68958641682268
  H           3.70979275606765      0.74030922510873     -5.35778793349145
