21
Coordinates from ORCA-job NEB_reactant E -37.626876596900
  C           2.08705388165266     -0.01693100447418     -0.61055857757953
  C           1.63479346829093     -1.24898850446691     -0.84077752489724
  C           1.79914136774216      1.27701815572978     -1.29349969404226
  H           2.82380241862096      0.09153929676603      0.17112880953656
  H           2.01848892282239     -2.04399390291169     -0.20966863651620
  C           0.69557212788692      0.60759953287496     -4.44969299087293
  C           1.02123167394306     -0.45801874194124     -3.72611594521329
  C           0.09607339207233     -1.06218935923958     -2.70964207280093
  O           0.77031159005413     -1.79867827215312     -1.69985851394693
  O           1.41325232365965      1.22677608393826     -5.40409423420363
  H          -0.26249143689991      1.09964242667056     -4.33164842821723
  H           1.96314545994588     -0.96918901532525     -3.84421608160594
  H          -0.53753647116708     -1.82352325976928     -3.18245407883135
  H          -0.56363520510015     -0.30862456080590     -2.26171123880350
  F           1.82701181704991      2.29112050921475     -0.38820842151550
  F           2.78549313356018      1.57923740326889     -2.19574037326040
  H           0.84615799943090      1.34721172940592     -1.83039481408637
  C           2.72451973852379      0.76232605785299     -5.63974917661569
  H           3.13806986139327      1.41169591973742     -6.40856792297989
  H           2.71873815832998     -0.27194428289128     -5.99728168844016
  H           3.33040577818805      0.83341378851889     -4.73244839510757
