19
Coordinates from ORCA-job NEB E -34.681176980810
  C           0.07295398254265      0.64848461986795     -0.58080134196715
  C           0.16340594871470      1.96113046837005      0.00892888576248
  C          -0.57020682150689      0.48402353255443     -1.83454135277640
  H          -0.98235461945184      1.45359174843068     -2.17857615402402
  O          -0.40202668242990      2.94416395328537     -0.73913848183034
  C           0.53591966772024     -0.51451717012056      0.24195185662018
  C          -0.67901687126397     -1.09786522970468      0.92800900437798
  C          -1.00801810645678     -0.82304217339674      2.17522488532797
  O           0.70901627657107      2.20831733113290      1.06567400911779
  C           1.29899176933198     -1.58661565302475     -0.54365209500924
  H           1.21067007665144     -0.09839215304648      0.99889427064127
  H          -1.28479367806566     -1.73712947117490      0.30101083587229
  H          -0.41360605269602     -0.16405255864772      2.78663618897734
  H          -1.88561670686976     -1.24630193880839      2.63350620050828
  N          -0.78308361257550     -0.45725459943924     -2.59918040345953
  H          -0.27623715445580      3.79324304022390     -0.29049041325463
  F           0.46234443171745     -2.37904096671433     -1.28265262552731
  H           1.82058602746311     -2.25376106581334      0.15107950350044
  H           2.01107212505947     -1.13498171397414     -1.24188277285739
