19
Coordinates from ORCA-job NEB_reactant E -34.776570849280
  C           1.61684664796681     -0.61261692946521     -0.22785306311031
  C           1.66273416568500     -0.40423485416523      1.10279386489738
  C           1.18048020912144     -1.75052186450138     -0.90272993421976
  H           1.93775868135626      0.20520184408184     -0.85604991780212
  O           2.07713806832675      0.78963090782936      1.55735118097039
  C           2.31840301757497     -4.33748087836724      0.68354841862153
  C           2.26303597882054     -3.38084963866267      1.59341736943970
  C           1.03118727103541     -2.58655259202420      1.90664609178002
  O           1.32754725450809     -1.21224157433288      2.12446572950500
  C           3.53864314787141     -5.14055890063633      0.37787107239664
  H           1.46087018274981     -4.59113626038569      0.07787140090345
  H           3.13431883224472     -3.12797754390786      2.18240934290691
  H           0.61063331007933     -2.91228010161556      2.86457790605251
  H           0.27455257600388     -2.70128454680968      1.12571770083521
  N           0.81754501661224     -2.64866950738751     -1.52355737575516
  H           2.05775977013820      0.78287243835081      2.52454140553415
  F           4.60203630606177     -4.79477762849098      1.17345092078103
  H           3.85103993029144     -4.98062979573280     -0.66132759369250
  H           3.35596963355195     -6.20999257377679      0.54045547995593
