21
Coordinates from ORCA-job NEB E -37.570279203270
  C           0.26637565970918     -0.81490901763147      0.14993742459393
  C          -1.05639836029100     -0.75174726715847     -0.56364566353429
  O          -0.02415552447117     -0.87563951402934      1.52990805234489
  H           0.81251147590658     -1.71939415504162     -0.15497348037385
  C          -1.59692626274624     -1.95915540904328     -1.23916332242364
  C           1.04373131288506      0.45365019864339     -0.27340314263378
  C           0.00806174802910      1.49311294485484     -0.54440485423952
  C          -1.31621758714948      1.37231393686624      0.14822255727857
  O          -1.94687090628754      0.16988701332770     -0.20489925408763
  C           2.12538883814582      0.91836667757085      0.72303360088771
  H           1.59536296565751      0.20226476057698     -1.18783435593060
  H           0.38921032777318      2.50911125943503     -0.56413392320003
  H          -2.00025968328344      2.17027880288337     -0.14864524325709
  H          -1.18937607116739      1.41467550220690      1.24039468254267
  H           0.78689660418245     -0.75879082376424      2.03777291491680
  H          -0.91221071186487     -2.29003890361894     -2.01879642613125
  H          -2.56590214639186     -1.73400119702875     -1.67506224629469
  H          -1.71111941668119     -2.78102816925067     -0.52825465783350
  F           1.59424250809655      1.35923579194011      1.89195383636901
  F           2.95422861289173     -0.10900192856555      1.06664853445942
  H           2.74342661705701      1.73080949682693      0.31534496654688
