21
Coordinates from ORCA-job NEB_reactant E -37.629176926290
  C           2.03803046600874      0.47574533841628     -0.06301919396507
  C           1.43593615645196      0.89123143035049     -1.17599773034640
  O           2.45178791969213      1.27296896760183      0.98856336533840
  H           2.19833959089153     -0.58609946809188      0.06455580301206
  C           0.95466057044956     -0.08488623325748     -2.21025447417592
  C           4.06047779142969      3.64728864432400     -0.11277894318547
  C           3.20314868524503      3.29629676417111     -1.05521178343577
  C           1.71760120095524      3.24887616957311     -0.86439863548633
  O           1.12875074847349      2.17290816887465     -1.55984689506199
  C           5.54543543744675      3.67320509511193     -0.29946975611682
  H           3.74007963361441      3.90928422039673      0.88444860363146
  H           3.54966999482580      3.01156346349430     -2.03998057331699
  H           1.26626326762847      4.14071259400101     -1.31571611524870
  H           1.46735760380638      3.21870914633741      0.20063872702251
  H           3.17781282899259      0.83809635021856      1.44615143905663
  H           1.45691840364323      0.10520738682199     -3.15710845976811
  H          -0.11333171817071      0.05094812584655     -2.36867165625399
  H           1.14494152917798     -1.10679301759811     -1.90111799960561
  F           6.14531759626599      2.79417992145185      0.55474258017524
  F           5.92210313945409      3.29807510878076     -1.54395855422366
  H           5.98929915371762      4.66398182317490     -0.10016974804547
