17
Coordinates from ORCA-job NEB E -30.483685670860
  C           1.31009269140475     -0.76800886571059     -0.13228474337073
  C           0.77283657024161     -0.34106420849982     -1.33142168678515
  F           2.31117166134576     -0.04603341722671      0.43498570077666
  H           1.38998308144758     -1.82057804167162      0.09948499210641
  O           0.02171256455088     -1.28400296376605     -1.98383891279361
  C          -0.27505568842487      0.02227366740857      1.19908237943652
  C          -0.97359590916048      0.86414418276924      0.33536973223505
  C          -0.29143467103487      1.83259819796399     -0.38687373939807
  O           0.64488388415448      0.87059272493296     -1.66682661575336
  N          -0.89397224454735     -1.03399580925294      1.80436474316020
  H           0.55057012058740      0.43524421690773      1.76315663102603
  H          -1.92646096157652      0.51084488213781     -0.03971426133749
  H           0.59403241568606      2.27311774352915      0.04599285517949
  H          -0.82848831349094      2.46560606292350     -1.07413496214050
  H          -0.45078918110217     -0.83932065881002     -2.70180861700933
  H          -1.63187155482286     -1.48324089134187      1.28463887988078
  H          -0.32361446525846     -1.65817682229332      2.34982762478710
