21
Coordinates from ORCA-job NEB E -41.820123423320
  C           0.35177347838867     -0.87125339053608     -0.24576211259017
  C          -0.96503655215858     -0.50207262123830     -0.56454294625770
  C           0.62442080569095     -1.74446757999402      0.95794877554261
  H           0.96771505358679     -1.17060385889714     -1.09180378582874
  C          -1.27431255184834     -0.17845965164146     -2.02224667017376
  C           1.09026484951000      0.85959556757174      0.29186040129777
  C           0.13737265213598      1.29556347897580      1.22994667546562
  C          -1.18594784328849      1.53423637827031      0.84289490293789
  O          -1.75534594063354     -0.03036700352668      0.32775441312894
  O           2.32759400217457      0.59823839196749      0.78979389129458
  H           1.07032921834104      1.30228791184608     -0.70225003841989
  H           0.35574023786062      1.08832652729471      2.26704289880781
  H          -1.36192225764932      2.05620228486342     -0.08933337794835
  H          -1.90206170850684      1.76614418426958      1.61713157837536
  F           1.94079072932605     -2.12986080771665      0.96360570888276
  H           0.03363720867981     -2.66520338403538      0.88546834297812
  H           0.42344610656241     -1.24856139269131      1.90927147391231
  F          -0.58448118375318      0.92560012121414     -2.44577109034110
  F          -0.87877715160898     -1.18256691208413     -2.83907767534245
  H          -2.34376249125622      0.01192727844550     -2.18642158367185
  H           2.92856333844662      0.28529447764238      0.10449021795024
