21
Coordinates from ORCA-job NEB_product E -41.852638094780
  C           2.80550752537087      1.02571517306589     -0.22773747024315
  C           1.40084352832170      1.22231726398517     -0.70264996182620
  C           2.79966535935567      0.05761459563371      0.95680896365395
  H           3.41925469425308      0.62774753388903     -1.04311333333583
  C           1.23968580083193      1.90239063465845     -2.08523297119849
  C           3.45503109912279      2.41974902939257      0.14368708385208
  C           2.87635537885087      2.93001366819718      1.43561075417796
  C           1.82093067125489      3.71825640809628      1.50511146350841
  O           0.41544097754660      0.92137928142478     -0.08311687027287
  O           4.84344382064431      2.31660340193282      0.16881926708284
  H           3.24096239591850      3.12294523667055     -0.66693438725784
  H           3.39718980968805      2.61021835061552      2.32893657018632
  H           1.30206457652969      4.05372208251301      0.62252094253129
  H           1.43276716288183      4.06216139273110      2.44802811998250
  F           4.05763456849917     -0.06731042851785      1.49264201068824
  H           2.48685787404545     -0.94193838135253      0.64097708081994
  H           2.14170583398753      0.41830485099129      1.75232569841883
  F           1.12930746140595      3.24271359399513     -1.91950019770888
  F           2.30816515443637      1.69676611504264     -2.88339149707061
  H           0.33513459813997      1.54808169433188     -2.60240574983837
  H           5.11265170891480      1.73514850270336      0.89251448384991
