18
Coordinates from ORCA-job NEB_product E -40.488611176500
  C           2.62904845606545      1.47070030980704     -0.01523171381907
  C           2.70434840819064      0.52586337189423     -1.19710706353515
  C           1.28508664937904      1.30496814959075      0.50753320536814
  H           3.33237121226172      1.16879351665938      0.77041037217971
  I           3.64673584367873     -1.35389913741455     -0.68590799702950
  C           2.83298624726527      2.96970953217725     -0.36608460484968
  C           2.08557293498003      3.37732049450095     -1.60824123887230
  C           0.89283189690004      3.94021385046730     -1.57002443018442
  O           2.25260819179905      0.69459496192885     -2.27313589469873
  C           4.31216772256607      3.32024747772404     -0.48356495971330
  H           2.43798522690605      3.54605784504156      0.48337851012204
  H           2.57185004479583      3.17070995612963     -2.55125682941601
  H           0.37614031247835      4.20931268332886     -2.47341840835236
  H           0.38321861846453      4.14415598197517     -0.64246692547602
  N           0.22381889728805      1.19424843298477      0.90978476209269
  Br          4.48670434220760      5.21306566618370     -0.95042163731832
  Br          5.24009501292876      3.04460490984708      1.22952840589713
  Br          5.23282998184478      2.26113199717400     -1.84247355239485
