18
Coordinates from ORCA-job NEB_reactant E -40.482243913750
  C           1.53373710140767      0.54922836975922      0.33063536706558
  C           1.54541841919952      0.27222289207764     -0.98039142539602
  C           1.44791358692569      1.82309225457968      0.90752471928032
  H           1.57459673513530     -0.26156604575493      1.04314021270231
  I           1.62289586026466     -1.73530516357829     -1.63114259813946
  C           3.25118111762094      3.90126766653996     -0.75028988934645
  C           2.98980904554596      2.89063989866406     -1.56283731240242
  C           1.60306180990581      2.46441208333442     -1.93564363784508
  O           1.50388182140432      1.05235722071672     -2.05650645925926
  C           4.59435837159792      4.37174091201025     -0.35349038144975
  H           2.44825696867633      4.46251342065428     -0.28731847085683
  H           3.77810612803905      2.30937427738999     -2.02428991313646
  H           1.37014630314725      2.82977124016383     -2.94240598678444
  H           0.85851741679482      2.85219821388510     -1.23355924428989
  N           1.36328948645544      2.84395673600700      1.42729462135978
  Br          4.78455571364069      4.20903300012860      1.60185334689636
  Br          6.06609648217694      3.41100767754720     -1.17383267885088
  Br          4.78137763206167      6.27325534587526     -0.83274026954739
