25
Coordinates from ORCA-job NEB E -48.469122510340
  C           0.66994670334192     -1.12048942805190      0.61553086310414
  C           0.74753909433256     -1.87913271300095     -0.57405662100937
  O           1.32585719092645     -1.47975234637223      1.68194346228519
  H          -0.08766670230429     -0.34087354993657      0.72005032105544
  C           1.67035737561856     -2.89052373663399     -0.78185151994670
  C          -0.64446363477169      1.43860956726365     -1.16482343425956
  C          -1.38037274587420      0.49762494856483     -1.73773772783899
  C          -1.29029282163049     -0.98579920975936     -1.52311388134041
  O           0.02363814960884     -1.54656473851570     -1.66692838826333
  O          -0.86795781139767      2.75797707887147     -1.40058102141817
  H           0.19808360183335      1.22378788851525     -0.51579816550351
  H          -2.19183984748171      0.81517609056755     -2.37475045463945
  H          -1.88755819213401     -1.49621109983743     -2.28217893859746
  H          -1.69337170281714     -1.23664426793903     -0.53511852373597
  C           1.29423757394409     -0.58342707080679      2.77815339681698
  H           0.25133185373856     -0.25746350580080      2.92560480173741
  H           1.91226503830499      0.29208514527529      2.57089252896169
  H           1.67728072472599     -1.12243840905489      3.64032353059845
  Cl          1.81268024877213     -3.58230488057428     -2.32992922381058
  Cl          2.78428213917908     -3.42080561035068      0.37374557871160
  Cl         -1.77796430885413     -0.20755867044038      1.87516511366043
  C          -0.66959555438069      3.60951328700141     -0.28493100917811
  H          -1.53217795208868      4.27140933420083     -0.21460361524077
  H           0.23545239308333      4.20500354378452     -0.43554310973046
  H          -0.57969081367513      3.03880235303021      0.64053603758148
