25
Coordinates from ORCA-job NEB_product E -48.514936585030
  C           0.81966948974430      1.21791126870946     -1.12343654754952
  C           2.23527473653931      0.75504813028513     -1.41672324407150
  O           0.79499356854390      2.08346245692757     -0.02000617089310
  H           0.16570947124554      0.34996442964717     -0.94324944526629
  C           2.37556835765981     -0.69655577730860     -1.92372035751563
  C           0.26802706005212      1.97629984832729     -2.39022259978829
  C          -1.00523790171208      2.67535974795409     -1.99856019234291
  C          -2.18180724232282      2.35976308784985     -2.50456146494754
  O           3.21306880904374      1.41149521760155     -1.22056754943047
  O           1.22948906019291      2.79277901494324     -2.99962660008289
  H           0.04919256970867      1.21835978393605     -3.15027589377412
  H          -0.89932934279375      3.45052629290286     -1.25573175696053
  H          -2.29542198569797      1.58040905982526     -3.24045255115067
  H          -3.08068045711253      2.87238775997479     -2.20729837747124
  C           1.03416300050717      1.44705439374190      1.21502268343065
  H           0.32014916495219      0.63163879306289      1.37927771780327
  H           0.89788334432345      2.21180690317120      1.97640220196381
  H           2.05193762458717      1.04957291766252      1.27701155743483
  Cl          3.95993304461248     -0.95340793129102     -2.65441758687832
  Cl          2.23770269042596     -1.67749710248818     -0.43357699667099
  Cl          1.11459558181736     -1.19474165516651     -3.05040450059499
  C           1.59115116280517      3.98235695363649     -2.31868363110265
  H           0.80778454957299      4.74137738386967     -2.40939669359282
  H           2.49313355381233      4.33423489403015     -2.81557655680650
  H           1.80385008949258      3.79299412819519     -1.26602544374157
