20
Coordinates from ORCA-job NEB E -41.847086087410
  C          -1.07811953376360     -2.18464938166426      0.03044002864138
  C          -0.22767722351690     -1.41157741741464      0.69614212790005
  C          -2.51613068112214     -1.81203460315706     -0.15728148999215
  H          -0.72595945166460     -3.11308707566942     -0.38425456941795
  Cl          1.43883431252154     -1.88112830982320      0.88112577952064
  C           0.83446557897251      1.19260363863643     -0.67947435501042
  C           1.08320879694327      1.35287465762406      0.61065115633441
  C           0.33522503510816      0.67431239549932      1.71444842819081
  O          -0.62719064441702     -0.25943301415216      1.28746091848862
  C           1.63533686353935      1.90796055180000     -1.72108636070956
  H           0.05541993859882      0.55050299886746     -1.05898372275244
  H           1.87562538635782      2.01080737166456      0.94063813947503
  H          -0.23290253528864      1.42390813231546      2.27622349327632
  H           1.05702417669597      0.20870492959174      2.39974247126644
  H          -2.97660667142823     -1.58205056487585      0.80123672922950
  H          -3.05868071665918     -2.62538278216775     -0.62777893104259
  H          -2.60511318624098     -0.92434024547212     -0.78244269655223
  F           2.94684992666035      1.61451318534893     -1.66132530070527
  F           1.23148189528285      1.60954797258958     -2.96159357419758
  F           1.55490873342065      3.24794756045890     -1.60388827194300
