20
Coordinates from ORCA-job NEB_reactant E -41.847512254920
  C           1.55131487688160     -0.04871378926708      0.93431345925268
  C           2.10444128511207      1.08945974715179      0.53617312404850
  C           0.07641029818072     -0.26964154872102      1.00984217374615
  H           2.19115334536869     -0.87193551032068      1.20615086501254
  Cl          3.84257096304205      1.25830643496550      0.48962773500702
  C           3.98323202884709      4.53487929645532     -0.75464820239641
  C           2.97600158912586      3.68617708296058     -0.88043142664590
  C           1.94907787586712      3.43899039313462      0.18223017413869
  O           1.37991110002530      2.14857396104853      0.10444100231476
  C           4.96767847537616      4.79384398193339     -1.84830939000259
  H           4.17294240484123      5.10242012365978      0.14359547552009
  H           2.82827606860475      3.13347703738819     -1.79897159427791
  H           1.10214150739362      4.11512741676577      0.01739169935348
  H           2.36408463011153      3.62984083669712      1.17902368427286
  H          -0.45766240302166      0.64834229404202      0.78685827955434
  H          -0.19710992862858     -0.61676645840327      2.00492166176082
  H          -0.22363211805040     -1.03512718081120      0.29555899625449
  F           4.74827299877195      4.06791046566032     -2.95139538263301
  F           4.95638758529268      6.08513647674981     -2.23414000083515
  F           6.22950741685820      4.53599893891051     -1.46203233344544
