20
Coordinates from ORCA-job NEB_product E -41.870258725930
  C           2.75666172718235      1.41067107153613     -0.42297195319457
  C           1.42633685275249      1.03697816375160     -1.02654841704354
  C           2.86322158751287      0.79483986611402      0.97070012287841
  H           3.54143360978119      1.00451477817395     -1.07154147809997
  Cl          1.32565847779498      1.45813009895994     -2.74548769698847
  C           2.88047968393390      2.95608577479553     -0.44738801596074
  C           1.90314366139660      3.62801447562383      0.47930754079761
  C           0.81923904091720      4.24834061322296      0.05601869666437
  O           0.50711805800924      0.51589577781851     -0.49805803799380
  C           4.30068163881987      3.40551906853304     -0.11239195141217
  H           2.70376134927132      3.29343073705098     -1.47533480238818
  H           2.14124523910086      3.57386253284962      1.53167790632310
  H           0.57170169100623      4.31639658269929     -0.99046047074982
  H           0.13192933590695      4.71113953122649      0.74163731010638
  H           2.04978997367388      1.13763847202049      1.60363411919121
  H           3.81074384468717      1.04687281638515      1.43621042865248
  H           2.79546998177034     -0.28726750380768      0.89266189882976
  F           4.63081003739613      3.26073392009272      1.17761320343304
  F           5.22787195886247      2.73622068779632     -0.81605059722629
  F           4.47040225022393      4.70398253515711     -0.39972780581881
