18
Coordinates from ORCA-job NEB_product E -43.720851580120
  C           2.24741543325107      1.28892663376390     -0.09834675136545
  C           1.26026404942793      0.52038512680501     -0.92518395055562
  N           2.10412452147562      0.84181880943853      1.34215515263689
  H           3.27388135222331      1.07824301589723     -0.42151388079488
  N           1.85596230488732      0.04922163911146     -2.29103449648493
  C           1.91795970179184      2.78814596982987     -0.21362971311589
  C           1.88888311811061      3.23851140351576     -1.63743159867878
  C           0.84256876347724      3.82732219175260     -2.18724699525461
  O           0.12866016539962      0.26475425891746     -0.70832007732446
  Cl          3.20261748266739      3.69643456461402      0.67307361181461
  H           0.97270790945048      2.98968495182812      0.29922264677965
  H           2.79952688040626      3.06717554663027     -2.19425312837937
  H           0.85358817790568      4.14718996186945     -3.21408835237508
  H          -0.06420717222709      4.01012805956360     -1.63480353801025
  O           2.92429797888789      0.05221053185145      1.71394032354914
  O           1.18515431287750      1.28967989693081      1.96091155021622
  O           1.08475002375345     -0.52328264538098     -3.00201078742604
  O           3.01024499623388      0.31735008306144     -2.50334001523115
