21
Coordinates from ORCA-job TS E -31.416245825240
  C          -1.15415682907548      0.84835245235772     -1.74035761560555
  C          -0.01665097234949     -1.53699643096049     -0.59376035617804
  C          -1.33273610698619     -1.40094892128028     -0.85110787720182
  C          -1.89593759456395     -0.25691966989131     -1.46777993353525
  C          -0.66479474855061      1.47479680623270      0.28830391724828
  C           0.05154503222138      0.49763320584703      0.91093779353067
  H          -2.02800096780709     -2.13153125984464     -0.46026182190176
  H          -2.97189445218760     -0.17720374447117     -1.52634426401669
  F          -1.76760927397178      1.94124982807671     -2.22575207337735
  H           0.34377084226342     -2.38011273027053     -0.02812317471460
  H          -0.09835008661471      0.85369017898100     -1.96725824156346
  H           0.73241043339085     -0.95310255946419     -1.09339193990710
  H          -1.69059980424523      1.66269169916965      0.55891022819017
  H          -0.41171584256405     -0.16695262029520      1.62263629647238
  H          -0.12844646610143      2.29152513277533     -0.16818999923151
  C           1.51211522064862      0.45585983306345      0.77697761788828
  O           2.10508802424033      1.06687891583678     -0.08927284943661
  C           2.22768395310065     -0.37518665615452      1.81591169503488
  H           1.80375149880558     -1.37503792310720      1.86118369839900
  H           2.09635829726961      0.09222180011001      2.79044074081988
  H           3.28816984307717     -0.43090733671084      1.58629815908620
