22
Coordinates from ORCA-job NEB E -45.775074944230
  C           0.04024251172854      1.07306180003611     -0.51731655807546
  C          -1.28035275525854      1.44861809930509     -0.05644093168153
  C           0.11356273017123      0.45468888280973     -1.89845814565875
  H           0.75919672401883      1.89392322534691     -0.47941965401107
  C          -1.38769238957185      2.68672302333568      0.62621517993752
  C           0.59719608773671     -0.05181326304941      0.75550966255461
  C          -0.45810781847769     -1.01476539111758      0.88965571904580
  C          -1.74261982931711     -0.56673031184606      1.25486467681062
  O          -2.18663818200068      0.54354595792584      0.08231888339744
  O           1.88613657073808     -0.43257710001444      0.48177710313667
  H           0.65290903277092      0.67451734777365      1.57128090743656
  H          -0.37360654314083     -1.95576690677194      0.37291402868669
  H          -1.82790682647330      0.08873329538570      2.11579568216815
  H          -2.54166530924743     -1.29460189843798      1.19883465580066
  Cl         -0.79585559178769     -1.04046240411744     -2.10460477265629
  Cl         -0.58853317841001      1.66201663341079     -3.04508562766196
  Cl          1.79540316332322      0.19891544596342     -2.41444265288019
  N          -1.49622874227771      3.71180098278075      1.13384933744747
  C           2.13872593209057     -1.76627183330698      0.08287950518790
  H           1.90947693559949     -2.46266900529017      0.89571989164576
  H           3.20439805994321     -1.79906599674396     -0.13395827855092
  H           1.58195941784206     -2.05182058337771     -0.81188861207969
