22
Coordinates from ORCA-job NEB_reactant E -45.810375033190
  C           1.56289027573116      0.05891411245798     -0.05259913614218
  C           1.50753708083914      0.07046483197671      1.29862417978140
  C           1.14069577407094     -0.95871974287574     -1.04188287145052
  H           1.95078638400976      0.96179857955456     -0.50306092894655
  C           1.92899468178089      1.31349714098820      1.88356917857667
  C           2.98950032182781     -3.30310965317937      3.39053734714334
  C           2.59387661477675     -2.67432331603871      2.28809210608426
  C           1.18580871250079     -2.20749156475729      2.09843118115386
  O           1.10817297967549     -0.78323571449735      2.24030248436682
  O           4.21250158754383     -3.76927669562099      3.69577136778982
  H           2.29660624816130     -3.53066236603404      4.19047716318163
  H           3.27817511015612     -2.43238933900078      1.49024250806191
  H           0.54306277753068     -2.58171304642283      2.89763809640355
  H           0.78959268826883     -2.52819322924638      1.13442608464439
  Cl         -0.53093368652047     -1.54195124560865     -0.74879968437443
  Cl          1.16210253765912     -0.24066253253937     -2.67326246773654
  Cl          2.23603996275862     -2.38626554942259     -1.09596226017675
  N           2.26809899765943      2.30176977401698      2.34866774727803
  C           5.24949690872394     -3.55602950307260      2.76373250656200
  H           6.14041140911039     -4.00556435984182      3.19779306393619
  H           5.42032881636272     -2.48779478136547      2.60067723430987
  H           5.02465381737276     -4.03646179947047      1.80688509955322
