21
Coordinates from ORCA-job NEB E -41.823457069680
  C           0.63289452006868     -0.41140602034699     -0.94823693426287
  C          -0.61403253592643     -1.08274846416532     -0.80973542396106
  O           1.78408302450107     -1.04094316775892     -0.61673581533698
  H           0.77726487554269      0.17758446795139     -1.85092655938560
  C          -1.79581638573022     -0.59311893462846     -1.62546674237510
  C           0.40101906200018      0.89812296198738      0.41910918215574
  C           0.13051421226452      0.11133155267166      1.55238379570492
  C          -1.05727776385870     -0.63566794666919      1.60896306778125
  O          -0.84126924511397     -1.72535672184688      0.28258923877436
  C           1.68305078007978      1.70218097754845      0.39931573957763
  H          -0.42135708783215      1.45836867902360     -0.01200384068357
  H           0.97323987042286     -0.21528487786971      2.14661182778649
  H          -1.97406773765307     -0.16210267412519      1.28014331386399
  H          -1.18881667440900     -1.31975477209597      2.43491708949094
  H           1.60276569623891     -1.69682885540574      0.07309843820756
  F          -2.24908964383509      0.63418385837569     -1.21486216163259
  F          -1.45166530132451     -0.42763814698092     -2.92351337267659
  H          -2.64389427516719     -1.29030624315231     -1.56989335615348
  F           2.67205380815466      1.10188868431943      1.13080360598467
  H           1.50638707246682      2.68322465028672      0.85746589233690
  H           2.07401372911019      1.83427099288127     -0.61402698519659
