21
Coordinates from ORCA-job NEB_product E -41.848719069100
  C           2.28513794599388      1.92242954090451      0.32956051255900
  C           1.06886085649229      2.23867432137102     -0.52108707048026
  O           2.15539516583452      0.64234936362505      0.87289524299445
  H           3.19978284399477      1.91534320074871     -0.26955610000495
  C           1.27633241042429      3.08034368626943     -1.79877098182830
  C           2.40747021340374      2.99100236343357      1.46010541356991
  C           3.55724877305729      2.60239747969519      2.34459137825063
  C           3.42574084226162      2.24731711598642      3.60756529354706
  O          -0.03081191485978      1.84917442518157     -0.23497920071726
  C           2.62636890064607      4.40098674258173      0.90588535913871
  H           1.47981783487928      2.97870612048228      2.04371816141626
  H           4.52873741987975      2.63268469039704      1.87148860860537
  H           2.46504120910898      2.21352395697382      4.09437712910898
  H           4.27590304565018      1.98342351252530      4.21151974379690
  H           1.26570579607517      0.55182014010428      1.24289826144073
  F           0.59260302521754      4.24277378954446     -1.71001772579399
  F           2.57256986894303      3.40728609146780     -1.99695485288656
  H           0.91366119543244      2.53647734688312     -2.68613622942727
  F           2.80720892936598      5.27168413142618      1.95007124086310
  H           1.75950272860173      4.77130724386957      0.35087977724482
  H           3.52792290959723      4.45599473652896      0.28694603860267
