21
Coordinates from ORCA-job NEB_reactant E -41.845869109500
  C           2.43858496615673      1.09331489770259     -0.05569470840749
  C           1.32181416317066      1.79905077132534      0.15019585158316
  O           3.28042736473592      0.64963631439586      0.92669366839120
  H           2.70059704981762      0.83328787643364     -1.07219842337458
  C           0.48474052329358      2.20184114390816     -1.03900242074938
  C           2.88115579271446      4.14844976387109      1.57090936485238
  C           2.73243877605744      3.16476847426395      2.44159340407498
  C           1.55342796992885      2.23851349366978      2.48191592557625
  O           0.76948022799270      2.25789334912612      1.30505856219739
  C           4.05836289114447      5.06731910059917      1.52272520807732
  H           2.13421689118768      4.35999687235352      0.81893453848072
  H           3.48583808197060      2.97392223153429      3.19173258169197
  H           0.86181070667520      2.55227560026849      3.27168153244448
  H           1.89349251071577      1.22081691092876      2.70046920297606
  H           4.12021584242047      0.37761906055871      0.54375615544797
  F          -0.81980833304764      1.90328898594107     -0.86120357152935
  F           0.53911168788840      3.54905279905731     -1.22583274340641
  H           0.81611085997373      1.72749854121469     -1.97494988999895
  F           5.02768509586225      4.72198501406427      2.43172262331545
  H           3.75873196994736      6.09716891377383      1.75475438759514
  H           4.53206496139376      5.04629988500937      0.53303875076172
