22
Coordinates from ORCA-job NEB_product E -39.804366875320
  C           3.05096795769866      1.42099604717322      1.51900276162962
  C           1.83464006984680      2.20197962131448      0.96811671059711
  N           3.27358734818847      0.13251116009387      0.83589686795147
  H           3.94095402413762      2.03329600731347      1.32214690702391
  C           1.11212021721298      1.59095838259040     -0.18564278140714
  C           2.87973271027743      1.25489127760843      3.04940053909876
  C           1.74028920418090      0.33210361826616      3.39315912773824
  C           0.52813299088706      0.76284285811978      3.68632867349740
  O           1.54213118014730      3.24818797664912      1.47731022138864
  C           4.18353688021183      0.77700296445624      3.69036037703955
  H           2.66262575668269      2.25780285623667      3.43371501912209
  H           1.97031742717252     -0.72322987852895      3.38246467811699
  H           0.28247066676544      1.81265642343876      3.69398092469451
  H          -0.26885172815845      0.08089749215099      3.92505149241457
  O           4.27365557452313      0.04915195539735      0.16463182524334
  O           2.43349047221836     -0.72515164704311      0.95409844087703
  H           1.79874961620456      1.39899249773999     -1.00916045087822
  H           0.31859879693543      2.25580886828008     -0.51574174387667
  H           0.68554362535659      0.63607556991406      0.12207187137333
  F           4.54186413510708     -0.45203290500767      3.20004332604910
  H           4.06003175789935      0.66429661858507      4.77180708164275
  H           5.01501131650423      1.45676223525160      3.47505813066358
