20
Coordinates from ORCA-job NEB_product E -48.990545925630
  C           2.52414760783945     -1.76795578601450     -0.38134131082815
  C           1.26209371080894     -2.30351105048130      0.27367339599101
  C           2.27003577473169     -0.34467661331433     -0.91728258268936
  H           3.32213089527778     -1.68259576309938      0.36201371094752
  C           1.28495357383149     -2.33065156726097      1.81730742065569
  C           2.99461920707251     -2.68198978101119     -1.52416498671131
  C           2.08122145578977     -2.76425614758232     -2.69171676082092
  C           2.49344468343468     -2.54852314120784     -3.92857270990713
  O           0.27773843604062     -2.63012258235447     -0.31359903522981
  I           3.28631572261887     -4.69116598486510     -0.70013382350535
  H           3.99074923474807     -2.36507523060315     -1.83839877326622
  H           1.05334790042573     -3.01816118721006     -2.47881457907732
  H           1.81702244577369     -2.60849792501098     -4.76223066353998
  H           3.51651862683182     -2.29360488935728     -4.15471080015079
  F           3.36398404321917      0.08735126195750     -1.58615476187578
  F           1.24557378744176     -0.29700027803467     -1.78673056792874
  H           2.06402907544540      0.37314816899722     -0.10842856229865
  Cl          2.79014744527050     -2.94735684870553      2.50832344078683
  Cl          1.09489321881420     -0.60739855869289      2.27199588666580
  Cl         -0.08126684541613     -3.25965609614877      2.43436606278266
