20
Coordinates from ORCA-job NEB_reactant E -48.981338366930
  C           1.67264886142672     -0.18453751818580      0.02814150592396
  C           1.57581409410192     -1.49914847421382      0.26807144430492
  C           2.02419447559028      0.53873417186605     -1.23420923815250
  H           1.46028475012687      0.47644131243514      0.85107535035117
  C           1.21471993958969     -1.99369558373324      1.66261955178423
  C           3.68377960509018     -4.34711057646838     -2.75335636371890
  C           2.54354712108357     -3.93487644199568     -2.23602368241966
  C           2.31263369357283     -2.51937390648049     -1.80557031714175
  O           1.78017846505620     -2.58016855217277     -0.48379293024382
  I           4.00143356668020     -6.31797683179518     -3.39588263739453
  H           4.53330553746011     -3.70366386811496     -2.91014620160378
  H           1.70941836254898     -4.60330456179230     -2.08297735682366
  H           1.58430569300498     -2.05174546098571     -2.47913320057828
  H           3.24807634345041     -1.95375941622784     -1.82029375454196
  F           3.30246203924054      0.30267851262060     -1.64567958831061
  F           1.23519429194227      0.18710736871982     -2.28577586893076
  H           1.92571396950381      1.62610972059811     -1.10683187433871
  Cl          2.72164468244002     -2.58751973208274      2.41566076093175
  Cl          0.51001833267144     -0.76794948915396      2.71313656466438
  Cl          0.06602617541899     -3.34094067283684      1.54166783623850
