23
Coordinates from ORCA-job NEB_im0 E -44.634155181590
  C           1.08177715014947      2.72400516627112     -1.68450654619419
  C           0.10257011062009      1.86908731096552     -1.37077505788236
  C           1.75731088587272      2.75557636734730     -2.99915322608112
  H           1.38916639359927      3.43655830660546     -0.94004802078575
  F          -0.32298409771088      0.95248369496546     -2.25116598488085
  C          -0.56771498923210     -1.04551005386711      1.61022326032318
  C          -0.60933533230584     -0.46862508650338      0.42086813318162
  C          -1.38600682953936      0.77800273834067      0.12374743696746
  O          -0.52332440424208      1.87893320650270     -0.21050616905900
  C           0.18730407412049     -2.29512226539913      1.92175970778719
  H          -1.13196614641668     -0.62540342753197      2.43340473009156
  H          -0.05013670653041     -0.87817981449371     -0.40977116273020
  H          -1.92636007982814      1.12450323733199      1.00589556566177
  H          -2.09417597407835      0.60531804078173     -0.69567283534610
  Cl          0.60572843331968      3.09084905908399     -4.33325827173555
  Cl          2.99600598511246      4.01895345239157     -3.01732254463888
  Cl          2.55732525356187      1.19373502520627     -3.36890407927852
  C          -0.75263381283768     -3.39514795267536      2.41509463716179
  H           0.92031108529154     -2.07805446229647      2.70373518400201
  H           0.72505141783458     -2.63674902380687      1.03616371315374
  H          -1.28266262128555     -3.07333662969357      3.30866740097542
  H          -0.19008615751309     -4.29438178669273      2.65278555383458
  H          -1.48516363796200     -3.63749510283347      1.64873857547218
