23
Coordinates from ORCA-job NEB_im7 E -44.169528685290
  C           0.63959765887515      0.84873664358989     -0.53585821291544
  C           0.73074961065060      0.14227250120249     -1.72722534759613
  C           1.78163566293871      1.24105035192963     -1.47917132130394
  H           0.13905890876894      1.79999590766000     -0.50922401536266
  F           1.36444665819818     -0.96213758573406     -2.03236864355771
  C          -0.05458344745370     -0.01175650542262      0.57880237801478
  C          -1.53662838628058      0.01809383372818      0.21760323134409
  C          -2.34785578873938      1.00969587714928      0.56276053198204
  O           1.19548834128161      3.29364103933268      1.49562557395623
  C           0.58024521354139     -1.36341453181932      0.99175075353025
  H           0.07561530639313      0.68139641053261      1.39578715002861
  H          -1.97153151651370     -0.78845350632754     -0.35916062701669
  H          -2.03901650720103      1.86146491315860      1.14737353369585
  H          -3.39383901826823      1.01348280671019      0.29183990122508
  Cl         -0.54479915099098      1.85815668646478     -3.49575291476100
  Cl          1.77451162248466      2.79511613148100     -2.20276756297443
  Cl          3.27443860623123      0.50072134635998     -1.90127288639474
  C          -0.36388201557804     -2.53376403814797      1.27437252857570
  H           1.11101451012697     -1.16583777725002      1.92427871334918
  H           1.33560930054725     -1.71999231333873      0.29239530618629
  H          -1.08673928145745     -2.27659058544597      2.04285937371775
  H           0.22258725753285     -3.37545138474523      1.64421312268251
  H          -0.88612354508759     -2.86642622106783      0.38313943359442
