23
Coordinates from ORCA-job NEB_im4 E -44.562141892660
  C           0.59173586739531      1.23411438012302     -0.89816516407419
  C          -0.64793304439395      1.00585603052726     -1.34796067037140
  C           1.81898132275483      1.05327412291525     -1.66652442206508
  H           0.57337225798799      2.12998200263753     -0.30543479671548
  F          -0.92996800646080     -0.17466508188729     -1.95623507806221
  C           0.03139432035082     -0.05867089902315      1.04434959445855
  C          -1.28851501670705      0.14271586619017      0.91881872582889
  C          -1.91092986142813      1.46930832164943      0.71380838783085
  O          -1.48897151729611      1.90731851019678     -0.60744373809624
  C           0.68680770062593     -1.40765920477503      1.08570257755668
  H           0.63369065414260      0.68690360283379      1.54675776204393
  H          -1.91801231251618     -0.66376265267327      0.57901253302040
  H          -1.56185003105661      2.26695082447739      1.36929975706021
  H          -3.00659598685926      1.43341338581822      0.75819198395417
  Cl          1.56743533670623     -0.02404561288945     -3.01708049068979
  Cl          2.07633599172257      2.66626529957763     -2.43534695169268
  Cl          3.27279762459649      0.69268491351730     -0.76258763981807
  C          -0.12145448209992     -2.61336291466726      0.63700365614340
  H           0.89911288054082     -1.53957982991872      2.14748429509295
  H           1.65198916663564     -1.42567390700114      0.57193223303351
  H          -1.06616384852355     -2.65406275195029      1.16881736078541
  H           0.44536013746452     -3.50713320559014      0.88721578811386
  H          -0.30861915358219     -2.62017120008802     -0.43161570333765
