23
Coordinates from ORCA-job NEB_im3 E -44.613944685980
  C           0.72994645984656      1.76137549109546     -1.20154034467022
  C          -0.52311824095556      1.33777824904071     -1.33747760774237
  C           1.88044972895551      1.52342698328907     -2.09701423412345
  H           0.85385221964435      2.56906921094252     -0.49415278935150
  F          -0.87847693436986      0.29971277582874     -2.11473226596570
  C          -0.08320223172340     -0.33398366958819      1.36657572063718
  C          -1.21298489767488      0.00850624112721      0.76461351573636
  C          -1.85189791187220      1.35990302990309      0.62214369147975
  O          -1.54055660593226      1.89636255294273     -0.69468165594041
  C           0.56208829907508     -1.69961144729884      1.37856573920264
  H           0.42174891250811      0.37413398319983      2.01600009016265
  H          -1.71186291801689     -0.72025729616768      0.14914382119913
  H          -1.54072856975678      2.11337045714199      1.35347204232049
  H          -2.94341481298886      1.28419077606805      0.61810853289714
  Cl          1.54778146920942      0.45120504203465     -3.45851120215420
  Cl          2.27874924582442      3.13802814176423     -2.79078736370313
  Cl          3.33297049912303      0.92946299308295     -1.25962116346146
  C          -0.27616917067663     -2.93879687441737      1.05556455042155
  H           0.91965539540384     -1.82740921600708      2.40124512365812
  H           1.45211733583909     -1.71666534972640      0.73709107839644
  H          -1.19727137964063     -2.93175436321426      1.63102404259844
  H           0.29384525655308     -3.81920769835640      1.35359122679706
  H          -0.51352114837454     -3.05884001268501      0.00137945160547
