23
Coordinates from ORCA-job NEB_im5 E -44.347384422900
  C           0.57145221940389      0.89612716118614     -0.66689777267032
  C          -0.46599011329028      0.65290856621468     -1.71839358466941
  C           1.79745333851190      1.00203255567110     -1.53468522550346
  H           0.39578634205212      1.92771835541598     -0.32520041547698
  F          -0.57615917116064     -0.64783561505258     -1.98114675009711
  C           0.12707975671798      0.07410631700205      0.67364074233703
  C          -1.35739273567724      0.18324146062540      0.70474977748223
  C          -1.96310109317726      1.46747785995402      0.65309988543309
  O          -1.14012902413839      2.53648148552252      0.05558994571105
  C           0.72820091708670     -1.31036804147255      0.97618581302897
  H           0.50969250939505      0.74774746994138      1.44717502398792
  H          -1.96038790682077     -0.69113833031205      0.48395276807792
  H          -1.76049444207129      2.13590567839153      1.50202184478357
  H          -3.08038906409320      1.38311035376717      0.58467576293159
  Cl          1.21425663138821      0.49073580746247     -3.25242434091604
  Cl          2.12093075481533      2.70799761756512     -2.00455955885154
  Cl          3.27319155047263      0.33996180424500     -0.94501418799655
  C          -0.12492697272230     -2.54982938110365      0.75349214058745
  H           0.99653039956599     -1.31675717038168      2.03494261111350
  H           1.65538955793326     -1.42283787692758      0.41991862611928
  H          -1.01408552508373     -2.52336226449163      1.37660734328714
  H           0.46392232929145     -3.41701075640028      1.04689582950038
  H          -0.41083025839941     -2.66641305682255     -0.28462627819972
