23
Coordinates from ORCA-job NEB_im6 E -44.286994080490
  C           0.57324491522842      0.87056032450800     -0.65821815747586
  C          -0.03982127415110      0.34463905166331     -1.90997658675436
  C           1.82894985852780      1.17081255742784     -1.35565911924510
  H           0.19452914258899      1.92125000713612     -0.38548051904983
  F           0.18280538385234     -0.93865846852346     -2.13794028832204
  C           0.05530054662082      0.04906509002411      0.61188282898974
  C          -1.46064294836263      0.10397171165439      0.45749268923739
  C          -2.21529171525136      1.15421593952896      0.75734232186087
  O           0.04335507858283      3.23900257624765      0.60751801867158
  C           0.68038438252042     -1.32741599456890      0.98516800580519
  H           0.31178545464013      0.72836601178932      1.42295081515168
  H          -1.97735229837334     -0.76017592876546      0.06532169135163
  H          -1.87786689999735      2.00953775410048      1.31936070815936
  H          -3.25687567184299      1.18786306320188      0.46806498168707
  Cl          0.41692906972331      1.24405295539025     -3.49057116251512
  Cl          2.13049943996862      2.77708463798071     -1.88861718440056
  Cl          3.23798695578616      0.25566436014606     -1.35610048759152
  C          -0.20662435492857     -2.57177473320652      1.01573867525395
  H           1.06855560059714     -1.22525908609075      2.00075255851870
  H           1.53980257564198     -1.54051386173691      0.35318061144498
  H          -1.02157715949772     -2.45644363666071      1.72450400752535
  H           0.39981479771675     -3.41364976204047      1.35301077029978
  H          -0.60789087959062     -2.82219456920589      0.04027482139711
