20
Coordinates from ORCA-job NEB E -44.983328129630
  C           0.39316421048606      0.56008066002376      0.41528932942469
  C          -0.97279970042715      0.60861668637539      0.75784154142625
  Br          0.70250032558282      1.82964127375158     -1.38874556142921
  H           1.05167840714994      1.08328766292035      1.09831788102449
  C          -1.51331698240375      1.56124392836954      1.74417043190844
  C           0.89413694354779     -0.84783950490978      0.02014735114757
  C          -0.13345259072435     -1.46508147407861     -0.85174555746165
  C          -1.40141647140806     -0.76336847512737     -1.06340788603136
  O          -1.90451199834642      0.00377705368751     -0.02164964956483
  C           2.30225235740896     -0.89234997892806     -0.61182391698359
  H           0.98744283198601     -1.38801035029026      0.97404769094620
  H           0.19803369016059     -2.08702984899144     -1.66776529190263
  H          -2.21189087774455     -1.41320771677762     -1.40172087806986
  H          -1.16256670511429     -0.05722310374429     -1.89321957767481
  Cl         -0.53003845362050      1.53572899055002      3.23135343758088
  Cl         -1.47305607795277      3.27648017902194      1.12475373753273
  Cl         -3.18477235996169      1.17568085586253      2.15226124675691
  F           2.24801188741584     -0.83321100679234     -1.97668573107661
  H           2.79766175170995     -1.83706614441970     -0.36694925737000
  H           2.91293981225557     -0.05014968650315     -0.27446934018361
