20
Coordinates from ORCA-job NEB_reactant E -45.030536417720
  C           2.44714587069873     -0.37272584082844      0.51524442115039
  C           1.69340346989907     -1.24085059154028      1.19354096564881
  Br          3.05971642113962     -0.46875621783576     -1.26302185710520
  H           2.77465191789687      0.53267264811690      0.99659130946824
  C           1.38226386947796     -0.90683558551722      2.64478825519218
  C           3.74808206886311     -3.61520173363723      0.61117462691862
  C           2.90572034653397     -3.56365612532133     -0.40654473708531
  C           1.47881346819581     -3.11363228003838     -0.31702331483404
  O           1.15363152927843     -2.43078986044262      0.88601429853046
  C           5.16681154641601     -4.07051622032252      0.50491587719792
  H           3.45946337765598     -3.32026443129562      1.61045551653987
  H           3.21987479783462     -3.86681841731443     -1.39460537942270
  H           0.81946971564088     -3.98899007286080     -0.29744380502502
  H           1.20972921737659     -2.51168122744756     -1.19111484947834
  Cl          2.80155459642336     -1.35582896150637      3.63986534394616
  Cl          1.06240643702730      0.81876403146835      2.88866538088180
  Cl         -0.01652678302910     -1.81662489072095      3.22624505189695
  F           5.47342648665362     -4.52020778141570     -0.75232319802530
  H           5.36098638800047     -4.89948609222201      1.19676667376855
  H           5.85807525801672     -3.24707034931805      0.72640941983599
