25
Coordinates from ORCA-job NEB E -36.831666695890
  C           0.27347387208790      0.81606604120471     -0.37696477591331
  C          -0.54138365839581      0.71735363344192      0.74182925419243
  C          -0.31366560373787      0.95846733556812     -1.75933188528111
  H           1.19595424897423      1.36189426937056     -0.21854913814340
  O           0.01837112190924      1.13465651729151      1.91150373072269
  C           0.82685259074653     -1.24854341640584     -0.35736937770047
  C           0.05425724495038     -1.86225479965727      0.61757471919211
  C          -1.34593581386502     -1.66849822006748      0.52936645561952
  O          -1.59894047504337     -0.01511089879419      0.78580849608535
  C           2.23001606506561     -1.16858740624418     -0.20512298375277
  H           0.49053881436061     -1.31348537420256     -1.38287058503938
  H           0.49011556180481     -2.01753269183126      1.59655429182735
  H          -1.96641435513383     -2.09092818139434      1.30938811188086
  H          -1.79096261348990     -1.75147639995297     -0.45642855006805
  C           0.74831728071834      0.97390810915311     -2.85341722603753
  H          -0.84416607034033      1.91640721795029     -1.78871910224590
  H          -1.05934762123875      0.18323527119012     -1.94936298480385
  H           1.45160637222516      1.78474509427526     -2.67970553593927
  H           0.28219850653063      1.12583275835194     -3.82415167431390
  H           1.31367967048031      0.04567273259268     -2.88769940157149
  C          -0.69228512726676      0.85019707668620      3.10141856790336
  H          -0.18758339919490      1.40598610153210      3.88808305893007
  H          -0.66938975931238     -0.21825987036562      3.32957680605401
  H          -1.73302072049350      1.17283232787892      3.01767374786071
  N           3.36771386765866     -1.09257722757176     -0.08908401945806
