25
Coordinates from ORCA-job NEB_product E -36.899750645660
  C           2.44178942895393     -1.25534383559425      0.23937307819454
  C           1.27466943292809     -1.00576340242877      1.18274040090915
  C           2.24042155876283     -0.40240268181387     -1.01833596116436
  H           3.36733300178757     -0.97585847242493      0.75088844218737
  O           1.70144261375967     -0.67824181934012      2.40434261117570
  C           2.44597213134334     -2.77760833162865     -0.04598761541475
  C           2.24823278634686     -3.54822020179760      1.23723353429020
  C           1.23494424996906     -4.36385655146352      1.45286095929159
  O           0.11559939329604     -1.09364431992224      0.87787197922542
  C           3.70420177270989     -3.20794867581480     -0.60989616259748
  H           1.63780234697699     -3.01281538861471     -0.74759919515824
  H           3.00627472604596     -3.38276371396258      1.99147280508990
  H           1.12130976569689     -4.89001261233943      2.38520588084895
  H           0.47176796215409     -4.53433610872853      0.71140488057076
  C           3.38216570438767     -0.51160346594652     -2.01980390863262
  H           2.14194708092843      0.63948558603100     -0.70231375913048
  H           1.29790470596565     -0.69129748195380     -1.48861055059916
  H           4.33294728227720     -0.27657446999446     -1.54670404313777
  H           3.22311042386055      0.18829744598635     -2.83652610142039
  H           3.44918533197301     -1.51207389993901     -2.43837858372202
  C           0.69488412180651     -0.45090334820533      3.38299072989690
  H           1.21032369362138     -0.11518209499857      4.27872156376113
  H           0.14686029166657     -1.37467850243318      3.57801879549762
  H          -0.00719126831416      0.30812397616315      3.03324823653230
  N           4.70700146109598     -3.58937762883564     -1.00521801649426
