23
Coordinates from ORCA-job NEB_product E -43.983032584880
  C           2.98866893844415     -1.24374942222279     -2.13906970422223
  C           1.72347115783929     -2.03787924833965     -1.97555608128851
  Br          2.62353931081026      0.32810921938202     -1.01700158121896
  H           3.83517049495169     -1.74042340441002     -1.66495459089740
  C           1.79438100832343     -3.13992464115402     -0.89461466327073
  C           3.33161594926902     -0.81884347946537     -3.57263412920319
  C           2.22600937409739     -0.02259165504079     -4.20801525394587
  C           2.25318460290443      1.29172083196000     -4.32177346979052
  O           0.71999670651449     -1.89536854438426     -2.60730962698504
  C           3.66269494159491     -2.05418689140355     -4.42480806544877
  H           4.22401364577315     -0.18478119977434     -3.50492016098286
  H           1.38269026124299     -0.59353366887396     -4.56691913198384
  H           1.44357332710458      1.83696240353696     -4.77434267092610
  H           3.08151949578875      1.88050784031557     -3.96126332571434
  Cl          2.66798431876262     -4.46625612534169     -1.72167448077516
  Cl          2.68456017356747     -2.67932722995533      0.56197733557766
  Cl          0.17342704326249     -3.68597519684123     -0.45691137050334
  C           4.97968629501367     -2.72091423992957     -4.04453820635480
  H           3.72259037725925     -1.72481829126331     -5.46434076614206
  H           2.84584520306449     -2.77559620485344     -4.35395528310165
  H           5.79300770481630     -1.99860166598150     -4.06354026488126
  H           5.21029344098830     -3.51061407520884     -4.75493868704274
  H           4.93437622860688     -3.16841511075089     -3.05499582089828
