19
Coordinates from ORCA-job NEB E -40.202707712210
  C           0.17009222797543      0.70966281562559     -0.97626203651643
  C           1.02929808676107      0.45676989628808      0.04505219378591
  C           0.30864007625427      0.57385200974341     -2.41548299124765
  H          -0.81032067804972      1.08815767196123     -0.71960852340260
  N           2.32104609756510      0.06910545423694     -0.01811449968169
  C          -1.36018011050694     -0.85046271243195      1.31371637989019
  C          -0.69904028501001     -2.06678880452768      1.60267533192922
  C          -0.70132683591722      0.48288130548314      1.71552537089575
  O           0.65004401481367      0.55184538115983      1.34745379503645
  F          -2.74100745631493     -0.70479800578936      1.52860841596397
  H          -1.23158617207140     -0.99493625917293      0.20298336871734
  H          -1.40066879958126     -2.88623390748788      1.79213065619669
  H          -0.70079170661664      0.55416727507598      2.80611458766179
  H          -1.29101361381438      1.31585290209998      1.31318757306492
  Br         -0.11951694109690      2.30023624780774     -3.33762798163388
  Br          1.99526798177425     -0.03380083788879     -3.14126403627327
  Br         -1.08691160933685     -0.75598942029317     -3.09873484002231
  H           2.77990712583525     -0.04160025137566      0.86988802310572
  H           2.88806859733721      0.23207923948549     -0.83024078747011
