19
Coordinates from ORCA-job NEB_product E -40.343508288630
  C           1.45412684865746     -0.77855349247382      1.30956899923365
  C           2.91766639975142     -0.89557526633805      1.81573630880864
  C           1.34531096131469     -0.81937315637870     -0.20301518894318
  H           1.12602300919740      0.22017491503698      1.62758074271038
  N           3.59931583724116     -1.97551854911820      1.40216717205413
  C           0.58437464719041     -1.79053815404958      2.09206446180422
  C          -0.86292883852343     -1.79691984740663      1.70019133353830
  C          -1.77707149104060     -1.05706477844805      2.29797460148180
  O           3.37378088643154     -0.03782698785671      2.53028190096268
  F           1.10343096750357     -3.06198588574603      1.93303852890476
  H           0.69826829286940     -1.55159021292460      3.15799014754276
  H          -1.11635007904073     -2.47573557958099      0.89812416703095
  H          -1.53073009221037     -0.39125811458097      3.10882848819396
  H          -2.80565363787301     -1.07790975910942      1.98619585535469
  Br         -0.31585289886550      0.03235348009893     -0.81929211639853
  Br          2.81610839576500      0.21363404070586     -0.99941064086891
  Br          1.38993584174615     -2.59577638812249     -0.99085671914331
  H           4.53417710214897     -2.09210256888321      1.76023908975891
  H           3.16526784773647     -2.77033369482433      0.96219286797409
