20
Coordinates from ORCA-job NEB E -49.489749951780
  C           0.21089703720333      0.69997525137267     -0.02624600165330
  C          -0.75044934107423      0.44785070766645      1.00957187249610
  C          -0.30714328908598      1.37106496634846     -1.30108442634268
  H           1.07439428175842      1.28545108539813      0.29815176723874
  C          -0.44527399773350      0.79366386839121      2.44431399622919
  C           1.30298486637925     -1.24179676796925     -1.53763443781245
  C           0.60562178926428     -0.95937090230798     -0.35554386526529
  C          -0.85206905502313     -1.44548029429021     -0.24226562215411
  O          -1.41781135758836     -0.71709717057712      0.83211736200822
  I           3.37849108977072     -1.34537859791643     -1.56504653034482
  H           0.84446482022294     -1.23516236193296     -2.50902072338780
  H           1.17350867950363     -1.20522290276159      0.54366570904576
  H          -0.93240748393023     -2.50648840271457      0.00376432833860
  H          -1.39342789955210     -1.25405915597389     -1.17319732298378
  F           0.60511648275862      2.24056354408798     -1.75998909438731
  F          -0.60585841342648      0.57921892908760     -2.33611166079012
  F          -1.41656955837944      2.08336112554055     -1.05620370705871
  F          -1.52515138470450      0.65115832585947      3.22792833026959
  F           0.50707952719751     -0.05912265270376      2.94451581520824
  H          -0.05639679356074      1.81687140539523      2.55831421134595
