20
Coordinates from ORCA-job NEB_reactant E -49.537606705280
  C           1.73773264921559     -0.15244133485260      0.00901051883878
  C           1.55454773111262     -1.24755929309726      0.76021587563016
  C           1.75642077835068      0.00424252656059     -1.47348152196094
  H           1.87024253226306      0.79208352508811      0.51072179827667
  C           1.53430704155031     -1.06226695935344      2.27924624573170
  C           3.50573037001709     -3.46181481177225     -2.23592958827558
  C           2.97118150320337     -3.44722265180178     -1.03114410872367
  C           1.52352047260846     -3.14069703704942     -0.77394242799499
  O           1.34873423396887     -2.53092143103589      0.49833234314863
  I           5.51227911939997     -3.95322586549066     -2.58244562636193
  H           2.95842392293763     -3.23043105189753     -3.13340018385947
  H           3.54743173497846     -3.68242331838406     -0.14755700291175
  H           0.96847154346678     -4.08177396540861     -0.67928840818342
  H           1.07601120456697     -2.56041512696262     -1.58194101220175
  F           2.76126605602624     -0.64754720990281     -2.09056700716611
  F           0.62641770882308     -0.41779961046949     -2.08015327178963
  F           1.89302249749682      1.29249720557412     -1.80268067200454
  F           0.33769835994652     -1.43327486308824      2.77856934954840
  F           2.46016068043725     -1.86051493291079      2.85094008761037
  H           1.73199985963024     -0.02709379374538      2.59229461264907
