20
Coordinates from ORCA-job NEB_product E -49.542606949340
  C           2.52822046486564     -1.06736604434042     -0.57908602722482
  C           1.24225313520298     -1.09797772505850      0.25852646393278
  C           2.49648283503743      0.24649744648614     -1.36700977756805
  H           3.41600799920317     -1.04317680408791      0.06015191178740
  C           1.44340894501259     -0.84300506824697      1.76592399284264
  C           2.51569428758133     -2.31766561464304     -1.46258416516407
  C           2.37274768810640     -3.53920420354639     -0.61901112901872
  C           1.44946904099094     -4.45970576237244     -0.82817740793653
  O           0.15770517441257     -1.26526249223739     -0.20718547016811
  I           4.36021032763379     -2.47824710198685     -2.61632129861236
  H           1.71065895327762     -2.25084020652680     -2.19541846368060
  H           3.09007124290210     -3.63716939662856      0.18532438592146
  H           1.37025717295187     -5.32844098632622     -0.19915646313494
  H           0.73443146440498     -4.37635790953752     -1.62973558041677
  F           3.68952778442030      0.59543245551592     -1.84360768267002
  F           1.64799031520785      0.21921692016288     -2.39165167927448
  F           2.10654171752135      1.25568575651369     -0.56192778883051
  F           0.49748579088493     -1.47145558175948      2.48116804135955
  F           2.64047080169237     -1.30621945043506      2.19188582376790
  H           1.39346485868979      0.23926176905492      1.98159231408827
