21
Coordinates from ORCA-job NEB E -46.389544393760
  C           0.68615622709722      0.33564380351741      0.11099543604714
  C          -0.40173453295531     -1.43420633730238      1.07653130563821
  C           1.11545453261623      1.37539911050998      1.09626668094077
  H          -0.13587013133643     -0.27044934231725      0.80885043927895
  C           0.49816047320842     -1.89190921175660      2.17119018129278
  C          -0.11656878900953      0.92025065228227     -1.02979467107268
  C          -0.73460261936058     -0.15125604440243     -1.89420823771400
  C          -1.98880554788561     -0.11847085212462     -2.29819419827899
  O          -1.23198531427646     -1.96069978455465      0.43985429501774
  C           0.83122059945742      1.63858483246812     -1.86915176400326
  H          -0.88342148539259      1.65269498364549     -0.72327228371918
  H          -0.06236786033224     -0.94751328144864     -2.17863054539554
  H          -2.39885722150721     -0.89391026011872     -2.92043530718193
  H          -2.66000102352158      0.67942162062246     -2.02325757085977
  F           2.12356282938938      2.11009472054706      0.63167313158751
  F           0.15354178010606      2.26115427176937      1.50645254982933
  F           1.54607801445045      0.80140483158529      2.25042810441953
  F           0.21332686641347     -3.18550308418372      2.48205524213633
  H           0.36169112395861     -1.28561655971618      3.07633448280429
  H           1.54602012943426     -1.83601511355849      1.85129087762290
  N           1.53900194944602      2.20090104453623     -2.56497814839014
