21
Coordinates from ORCA-job NEB_reactant E -46.533662834920
  C           1.95993146220919     -0.09893203823403     -0.39535749398949
  C           1.22103623065466     -1.08989959458762     -0.90575690988675
  C           1.88125639244720      1.37271741119147     -0.58885075821316
  H           2.72998806049651     -0.37451313866290      0.30831358248377
  C           1.49287494914871     -2.51703690592959     -0.47316506397274
  C           0.86427246070583      1.23037017336274     -4.48843446482417
  C           0.73653488626859      0.11294875572982     -3.77719337430679
  C          -0.17383348010590     -0.02833289373726     -2.59709543487759
  O           0.19353381191365     -1.12309433784458     -1.76778244199123
  C           1.69650797277889      1.30439885486149     -5.62231216585388
  H           0.33715253339130      2.13951453472381     -4.23236663850321
  H           1.28183061462679     -0.78028059766631     -4.05178624696997
  H          -1.17525241893839     -0.30601725578679     -2.95082313037241
  H          -0.26780116454429      0.90517755325510     -2.03876104648221
  F           2.77098238207898      1.99931441121296      0.18693273723133
  F           2.12952505890656      1.79016853201977     -1.84973349792992
  F           0.67592447545413      1.90254698583302     -0.27228867750028
  F           2.38243222801534     -2.59095537746149      0.55421221860345
  H           1.90973902108482     -3.08878824217576     -1.31036428384743
  H           0.55854673342496     -2.98266670526915     -0.14218661396553
  N           2.36471778998246      1.37035987516531     -6.55120029483173
