19
Coordinates from ORCA-job NEB_product E -29.738112271820
  C           3.09487887436973      0.83068943924781     -0.90930560302785
  C           1.57106883282897      0.75753245641240     -0.97038972624496
  O           3.53951217360974      0.09571284256591      0.19475134302387
  H           3.54290846120589      0.40284173486648     -1.81571738099930
  N           1.00402031275463      1.20690768116781     -2.10400738473992
  C           3.53958171637856      2.31624227224405     -0.81002201707544
  C           3.00090361645555      2.92538502619627      0.45567726477398
  C           2.15795844258463      3.93965071528813      0.49083683637068
  O           0.94157142384516      0.32480272611260     -0.02799261132858
  N           4.99301033439756      2.33573501032825     -0.89571482687486
  H           3.14962078530366      2.86545676905130     -1.67708843974209
  H           3.37344302700182      2.47899109465384      1.36806872323548
  H           1.78153611494825      4.39547983166085     -0.41115541567857
  H           1.80465696130191      4.35609005527349      1.41851480671034
  H           2.74702066390925     -0.08359588296992      0.73317460086942
  H           0.00042613546577      1.19910433352725     -2.18414734017919
  H           1.55269632486936      1.53887650060533     -2.87620448267989
  H           5.36797042125928      1.66009287268893     -0.23638123852091
  H           5.34651537751028      3.25280452107919     -0.64309710789223
