22
Coordinates from ORCA-job NEB_reactant E -28.538651327730
  C           1.94908652240522      0.28778327743511      0.08724109335653
  C           1.47238226338100      1.45950653729056      0.49668877378402
  C           2.08740288742778     -1.04180339357577      0.77671702694083
  H           2.28074482613169      0.27376372605875     -0.94225798907528
  H           1.45913699606828      2.28267924335431     -0.20975174728922
  C           2.38310826080792      1.56227364411960      4.79772028373036
  C           2.23358117382846      1.15673170986201      3.53994305988267
  C           0.91464926001037      1.13065205254177      2.83061195402818
  O           0.92677797447366      1.91875182352200      1.64989017859387
  N           3.56523263416361      1.51273592284925      5.51161558088672
  H           1.52790626945616      1.87825596541878      5.38027835170804
  H           3.09529916385218      0.85597731653486      2.96054497180789
  H           0.14683333058266      1.58883851659433      3.46146499341046
  H           0.60231085196606      0.10614901116422      2.59470497648445
  C           3.15178620716883     -1.89856201661054      0.09534251122109
  H           1.13056273208048     -1.57566841858698      0.73588271049373
  H           2.35465163280075     -0.92602017601636      1.82746661546716
  H           2.89088226056894     -2.07867341902293     -0.94537766829965
  H           3.24503164836153     -2.85933843829812      0.59733210802757
  H           4.11814516176061     -1.39942633595151      0.12506669982879
  H           4.39549098754742      1.40850513981535      4.94709229792040
  H           3.66339695515641      2.19558831150132      6.24588321709138
