22
Coordinates from ORCA-job NEB_product E -28.538088663840
  C           2.43144412585299      0.87426073511493      1.35603324477333
  C           1.31634070226952      1.68221967971045      0.74446724887568
  C           2.32292115600556     -0.57752671985294      0.86550807911170
  H           3.36002753887078      1.30309642530904      0.95499508747094
  H           1.17754417829100      1.47598347382193     -0.33693524906549
  C           2.47825389944569      1.08194529046499      2.88869382746998
  C           1.62743143795345      0.07881229837758      3.62438956615527
  C           0.38738813431879      0.31009937857219      4.01174781652858
  O           0.62578700473623      2.48489872588564      1.30445842661431
  N           3.86769403719828      1.11566112370216      3.32831121259190
  H           2.06931931037553      2.08296185334692      3.07359376921279
  H           2.10485047249295     -0.86853452064354      3.84759392238704
  H          -0.09895999045969      1.24746478044547      3.79910940199756
  H          -0.19427739078206     -0.42619957728566      4.54132988829861
  C           3.56997512928908     -1.41392252082790      1.12774285668466
  H           2.14473566046444     -0.55616116951716     -0.21309557639354
  H           1.45633541122064     -1.04945138891135      1.33332351900175
  H           4.45754607534631     -0.90597403065581      0.75715131707897
  H           3.48496891695451     -2.37261018380672      0.62033894159910
  H           3.70136684024066     -1.61247601111246      2.18791257105710
  H           4.28660538674385      0.19379687231591      3.26693318679228
  H           3.91700196317148      1.41185548554633      4.29679694175746
