23
Coordinates from ORCA-job NEB E -40.007521583840
  C           0.24065890063130      1.48222607218396     -0.05160901181398
  C          -0.97063188895687      2.00735718904040      0.39032335324582
  C           0.40268876080889      1.25378189401357     -1.54146501897166
  H           1.15198552020282      1.91055637353498      0.35335764411889
  I          -0.88018999027831      3.08827464354894      2.27939350434288
  C           0.13170992980088     -0.31268463451797      0.82479087402271
  C          -1.11459129472752     -0.74434601495622      0.37635084921414
  C          -2.27467846776945     -0.01895105433124      0.75143122366302
  O          -2.08573852902085      1.49553205956022      0.08955784721609
  C           1.40449745830438     -1.07343843855038      0.52919998520069
  H           0.15510918590043      0.12664793321713      1.82005287522889
  H          -1.17562657255236     -1.36441179378073     -0.50328594729038
  H          -2.36471952736615      0.26901969126448      1.79648605230349
  H          -3.21426782554477     -0.33219142019594      0.31563060323577
  F           1.64994503925646      0.80586669194987     -1.82340361901038
  F          -0.45150613226460      0.35913528441146     -2.07654304420337
  H           0.27081963194842      2.19975100063705     -2.09613874428808
  C           1.31649204313475     -2.10021050953290     -0.59315094349291
  H           1.67560045583920     -1.59094027200650      1.45516947157459
  H           2.21519377055508     -0.37428865062046      0.31702662440898
  H           0.60086164109727     -2.88084687981020     -0.34644579114261
  H           2.29051495231108     -2.56247560794521     -0.73304012272359
  H           1.02587293868989     -1.64336355711431     -1.53368866483899
