22
Coordinates from ORCA-job NEB E -32.760392385650
  C           0.33284433484842      1.48807111120323     -1.02078760423542
  C           0.61441626303328      0.49993258521334     -1.85734086134664
  C           0.38164166493967      1.55242113138136      0.47596398566047
  H           0.00084472370021      2.39741269855184     -1.50221037814092
  F           0.42894091702887      0.73507199605116     -3.18072366366124
  C          -0.72596388636737     -1.90503593981136      0.12115997050586
  C           0.55748862130760     -1.76364173869350      0.40789066336245
  C           1.59787862264959     -1.24459728551434     -0.54126067864404
  O           1.08235579924965     -0.75787328996253     -1.76110832434431
  N          -1.64010695123665     -2.41188584455784      1.08575237938246
  H          -1.10498607909642     -1.62709542004022     -0.86241946107410
  H           0.92602645755725     -2.05262785473455      1.38093923205152
  H           2.25778340125586     -2.07093202519651     -0.83377253827934
  H           2.21203688460750     -0.47733472296966     -0.05233163508207
  C          -0.80722770786243      2.34890755510092      1.01060514671336
  H           1.30606872879090      2.05049085323926      0.78813781408525
  H           0.36478345914203      0.55664899331793      0.91710103734522
  H          -0.79653956091695      3.36427435175757      0.62124110031010
  H          -0.77262531276963      2.39484760798688      2.09639748466166
  H          -1.74148174177350      1.87756777069363      0.71458424731021
  H          -2.36209681873143     -1.72165957593951      1.27589489097777
  H          -2.11208181935647     -3.23296295707709      0.71628719244174
