22
Coordinates from ORCA-job NEB_reactant E -32.779953667630
  C           3.06645736074273     -0.21185654236878     -0.66689052655678
  C           3.30317772188273     -1.23464917917857     -1.47431858199095
  C           1.69026037275821      0.23112203163165     -0.28284965387768
  H           3.90546552651567      0.36230239833463     -0.30890573153541
  F           4.59137366824079     -1.57009331592862     -1.76690758281543
  C           1.88832780932922     -4.94635860209389     -0.57556344069158
  C           2.83294527939580     -4.13051884319863     -1.03952173874026
  C           2.69947464797729     -3.36857031023338     -2.31673932433148
  O           2.38403897374726     -1.98273778884594     -2.09008858871306
  N           2.00029796204686     -5.72351800754265      0.55519890579628
  H           0.98067618035441     -5.11155069735246     -1.14087616887548
  H           3.73698122610453     -3.96025828546030     -0.47162829580795
  H           1.85898671408027     -3.73361122918197     -2.90897862003386
  H           3.61975866288299     -3.43416764586273     -2.90948546159207
  C           1.33500477076039      1.56723962708542     -0.93532638413700
  H           1.63983034067674      0.33987009004922      0.80389002483664
  H           0.97267070308629     -0.52971982235386     -0.59127475572794
  H           2.04637122872202      2.33578453200707     -0.64138552412789
  H           0.33915982521353      1.88347820677812     -0.63395328079621
  H           1.35719238273352      1.47280667144569     -2.01803799760093
  H           2.73818497701238     -5.45904291903285      1.18998080496857
  H           1.14056366573636     -5.98415036869713      1.00926192235047
