22
Coordinates from ORCA-job NEB_product E -32.787957149760
  C           2.44219879180476     -1.44192910280846      0.02231648015196
  C           1.22519250660804     -1.36074901103172      0.88338232246469
  C           2.37878798896516     -0.32096188808755     -1.02220824242553
  H           3.32012940622906     -1.31446870628139      0.66544449063918
  F           1.36271637800396     -2.13473753098282      2.00671861905693
  C           2.53662988158910     -2.90125910778515     -0.53027359014304
  C           1.66692626587555     -3.07898743756568     -1.74764685222962
  C           0.45558736192083     -3.60110145100134     -1.71640100079735
  O           0.21802243213548     -0.76552750868408      0.73068690341404
  N           3.93474164018852     -3.24034446711488     -0.73415896782579
  H           2.17636317521773     -3.57042403142221      0.26089495752444
  H           2.10667061155454     -2.76654221082281     -2.68642072943685
  H           0.00135594167373     -3.92241926997667     -0.79332865027377
  H          -0.13784505675619     -3.72166762805923     -2.60657380557882
  C           3.65769717669403     -0.14552048057516     -1.83131200056171
  H           2.17412844119282      0.60889820021366     -0.48632898944071
  H           1.53295810515162     -0.49942441424262     -1.68813740304821
  H           4.52589605585176     -0.11366387617891     -1.17714015946642
  H           3.61406441317626      0.78737897917866     -2.38849360730225
  H           3.79165219370241     -0.95010773551024     -2.54980365931776
  H           4.32033319697726     -2.73952328596218     -1.52617213521421
  H           4.03209309224356     -4.23301803529923     -0.91204398018919
