20
Coordinates from ORCA-job NEB E -43.569501582980
  C           0.66438238779035     -0.56436148361353      1.00216525185770
  C          -0.71273435690237     -0.88110200439812      0.97989223863694
  Br          1.28589807996995      0.22928716540050      2.65789665093371
  H           1.35958655482255     -1.34022526907951      0.70096860003146
  C          -1.19923574333540     -2.07963675715517      0.18273040835160
  C           0.81979524651863      0.90156494350375     -0.23155124993997
  C          -0.49127122545296      1.31512689170625     -0.54199100996205
  C          -1.33540929641786      1.54742329963213      0.56686136313456
  O          -1.56987031813363      0.03591431787527      1.23780812893883
  C           1.72110085729475      0.48160317246115     -1.35603572499277
  H           1.35184682778950      1.56534054682862      0.44829148020082
  H          -0.95173398927016      0.93555546969147     -1.44688787215522
  H          -2.36215385760549      1.82061250738119      0.36338579902383
  H          -0.90679696093732      2.07990507004486      1.41094742203135
  F          -1.83003346196526     -1.64709847520786     -0.95822488557128
  H          -1.94505691879808     -2.63364066498736      0.76280253869326
  H          -0.38177188418935     -2.73840371789070     -0.12137869229224
  Br          1.99273269077840      2.01364466980816     -2.56534036668363
  Br          3.48618208059234     -0.04574009862670     -0.69038518957857
  Br          1.00454328745142     -0.99576958337441     -2.40195489065832
