20
Coordinates from ORCA-job NEB_product E -43.620917931290
  C           2.93903441595122      0.64384078199261     -2.29990106785674
  C           1.51946849612931      0.18594272495660     -2.63425700802291
  Br          2.87674468685964      0.91306200866133     -0.35123144030483
  H           3.66057723060176     -0.16450678880263     -2.44802804558998
  C           1.40511924733063     -1.32918639102710     -2.66894956926226
  C           3.42877579400797      1.93743015637217     -2.97049582194469
  C           2.38495905393029      3.02287921443051     -2.98320332805658
  C           2.37486216820354      4.00829274367860     -2.10573141807409
  O           0.59735372467616      0.93157823329085     -2.77966035777876
  C           3.93121258822771      1.66200012530170     -4.38354758566588
  H           4.29582880176320      2.29479152454387     -2.39573595731414
  H           1.62095066990163      2.94610623259096     -3.74323767150594
  H           1.60868975420850      4.76204475994842     -2.12558192632450
  H           3.11809707494068      4.09601608945587     -1.32965474870342
  F           0.11507607188996     -1.71691704152172     -2.84668458549799
  H           1.75604030594029     -1.76019209717925     -1.72244545811935
  H           1.99162719172747     -1.73474571597864     -3.50345766040261
  Br          4.48839912777478      3.33668045355155     -5.21872317843828
  Br          5.49676315082810      0.47263136910338     -4.35291550535379
  Br          2.57722044510718      0.82285161663092     -5.51825766578328
