20
Coordinates from ORCA-job NEB E -28.389019498220
  C          -0.88757955904274      0.21948712284516     -0.88279650326813
  C           0.12703637706833     -0.61463122245350     -1.36003595293073
  I          -0.96385643608761      2.19133336054310     -1.68830943579159
  H          -1.89040074257148     -0.17955469458317     -0.79934683460675
  C          -0.04430384555442     -2.10793633843437     -1.26605216737914
  C          -0.27308295785970      0.41357755943459      0.94525336114472
  C           1.02215117742838      0.90721912468653      0.76819290196822
  C           1.96255728081133      0.11066806316376      0.06066047170557
  O           1.32996134255542     -0.12509507924136     -1.42747311354083
  C          -1.29710982417770      1.25515366135733      1.65758168391506
  H          -0.36011628245998     -0.64421307469582      1.18760516856869
  H           1.15842112282622      1.97964445162511      0.75477437054101
  H           2.07143553975538     -0.92128952791135      0.38882521761633
  H           2.91389175771189      0.57355330144728     -0.17030273955111
  H           0.32394458010765     -2.47057613482527     -0.30178496910249
  H           0.54761327782573     -2.58458166729143     -2.04432908598058
  H          -1.08567857547156     -2.39498442660666     -1.37630004142694
  H          -2.30807353921371      0.91311232496393      1.44646706497252
  H          -1.21210848610681      2.30159998820595      1.37518912265482
  H          -1.13470220754462      1.17751320777017      2.73218148049132
