20
Coordinates from ORCA-job NEB E -37.757567766790
  C           0.74432513163010     -0.84520462820422     -0.45784597926814
  C          -0.47390941957994     -1.43204639898739     -0.07405734277256
  F           1.83498608721927     -1.10128193212701      0.29831447229657
  H           1.02004475999236     -0.86756951461714     -1.51042148307170
  C          -1.55875000692244     -1.55470523903259     -1.12406600444761
  C           0.46526404743423      0.97925279253163     -0.02751060787460
  C           0.12818745339214      0.85418015620413      1.32421237989212
  C          -1.06870874883735      0.14962305745179      1.66584567972841
  O          -0.84472875060017     -1.35606902397136      1.18007145093580
  C           1.74758140283888      1.67209861431554     -0.40991441786276
  H          -0.35113752688709      1.17699953080805     -0.71624837779021
  H           0.92313043193063      0.89164989124721      2.05545350936241
  H          -1.95952881537156      0.44200321971420      1.11318064798217
  H          -1.26262037777487      0.02000404590910      2.72410151768040
  F          -2.03858435088474     -0.33199924646019     -1.52079002674708
  F          -1.08350811488488     -2.13099260858293     -2.25172900446794
  H          -2.41470941841880     -2.13955270276526     -0.75952973747404
  H           1.65223780173694      2.73649601375242     -0.20102265167022
  H           1.95407383407468      1.55313794402757     -1.47038139149582
  H           2.58635457991261      1.28397602878645      0.16233736706481
