20
Coordinates from ORCA-job NEB_product E -37.788078462040
  C           3.02906378716241      2.22261512533979     -1.42920961558075
  C           1.82594360435346      1.32640791874502     -1.25307309292818
  F           4.15874142853629      1.53590795873496     -1.06416454330496
  H           3.15143385110264      2.48596308340360     -2.48874261572079
  C           0.53247900548223      1.85474434571578     -1.92794149399346
  C           2.88876901240730      3.50569025174314     -0.57195725763499
  C           2.76242704216987      3.13037070037356      0.87729114258986
  C           1.70531989906064      3.39749749938923      1.61878929429840
  O           1.80508586734861      0.30156826477998     -0.63814175154558
  C           4.11049437539615      4.39746406195022     -0.79621345495803
  H           1.98939930621086      4.03372975440246     -0.90015693289486
  H           3.61651850019685      2.61008353678314      1.28789662479062
  H           0.84348758733903      3.90764115023876      1.22053020452516
  H           1.65677358676685      3.11485530245944      2.65592559673578
  F          -0.12126436685506      2.68537411994076     -1.08350743507834
  F           0.80634205730586      2.57859947402832     -3.03778357349894
  H          -0.14572529349611      1.03169842318524     -2.19704571103810
  H           5.02064542819550      3.86314732401685     -0.53504695229149
  H           4.03396352596245      5.28185461997338     -0.16900991308003
  H           4.17250179535415      4.71048708479634     -1.83603851939133
