20
Coordinates from ORCA-job NEB_reactant E -37.781394820080
  C           2.64988987641871      0.97126946063691     -0.73211639587577
  C           1.51019595194353      1.65901678157413     -0.80827784755955
  F           3.55648993708904      1.08619933073561      0.25634754300530
  H           2.95474868636770      0.25084460440169     -1.47311579913107
  C           0.61441637137132      1.41218329584478     -2.00618615702567
  C           3.11631056752097      4.41048001343281     -0.47055844610741
  C           2.91375067803092      3.89008674704840      0.72775921109185
  C           1.72557259037353      3.05605073087642      1.11409556714020
  O           0.97183737869757      2.58051670217015      0.00977482056475
  C           4.30169852689697      5.23412875167017     -0.84084405892726
  H           2.39594628231743      4.25283645747389     -1.26326502730751
  H           3.62203613799388      4.04514848638885      1.52911260333822
  H           1.00998779024556      3.66237251958597      1.68059288139901
  H           2.04257543629419      2.22053409333203      1.74926888326407
  F          -0.64302830123927      1.10923253945376     -1.62077734358037
  F           0.52346103107722      2.53041455021718     -2.76504428279852
  H           0.97941841905269      0.59801177389147     -2.64976707747849
  H           4.84490047310354      4.76250315133150     -1.65914795415425
  H           4.97378876903773      5.35559942590405      0.00470416374586
  H           3.98010339740679      6.21697058403021     -1.18345528360341
