17
Coordinates from ORCA-job NEB E -42.870250308680
  C          -0.81132334013633     -1.28443547671947      0.08856198436982
  C          -0.30741802742617     -1.26753214788072      1.39372913896692
  Cl          0.04280041480814     -2.22807413671663     -1.08572723128621
  H          -1.88729888344136     -1.30772634624626     -0.04712315965250
  F          -1.22056131977716     -0.82835739602336      2.32583756653485
  C          -0.27364054586362      0.60607527454488     -0.32655765415598
  C           1.08912207604944      0.60711290180954     -0.03955864567291
  C           1.48626374106973      0.42570067606329      1.30329507318792
  O           0.90040048372176     -1.12496689408685      1.68966138396618
  C          -0.71602708988312      0.84037460364988     -1.74981638717494
  H          -0.96166302626539      1.07322519284553      0.37204353399253
  H           1.78180322755029      0.35441397783467     -0.82907639388256
  H           0.95578118891217      0.98538902618192      2.06610461051120
  H           2.54189917522147      0.30721033107552      1.50302855868039
  F           0.12316531544519      0.35560477278070     -2.66555648987854
  F          -1.92579534580303      0.32440274872654     -2.01011671696783
  F          -0.81750804418203      2.16158289216082     -1.98872917153836
