17
Coordinates from ORCA-job NEB_product E -42.919043721530
  C           1.87693049062884      1.41947899341525     -1.90248589147332
  C           0.46799889714742      1.14831433110975     -2.37294056901326
  Cl          1.80789941068615      0.99068260846125     -0.15520088480068
  H           2.59583304937999      0.74303144398212     -2.37178934336031
  F           0.34005159950252     -0.13071369647220     -2.78437453411509
  C           2.26985933340602      2.89162610826849     -2.06162979916592
  C           3.46613149712579      3.25074951895609     -1.21943521041244
  C           3.47167716887149      4.24950323362251     -0.35931557893413
  O          -0.45784483967010      1.87443030432085     -2.36363724638882
  C           2.60785954294433      3.15229905626528     -3.53179464614379
  H           1.41404929036212      3.52658729350340     -1.80634214999107
  H           4.33963791179327      2.63416936423872     -1.37686156733798
  H           2.60580026222808      4.86997769490218     -0.19930351627925
  H           4.34581331664012      4.48369707771765      0.22164746352867
  F           3.67783884985289      2.44974964475178     -3.93285467361360
  F           1.60749214006408      2.81341980494266     -4.35781016003209
  F           2.87947207903699      4.43919721801422     -3.75687169246692
