19
Coordinates from ORCA-job NEB_product E -47.841379754180
  C           1.49942369387163     -0.44263159998196      2.10391882255631
  C           1.03690493800887      0.69415948762192      1.22422002339195
  C           1.31323564865060     -1.78521943288700      1.38369230210941
  H           2.58161277281016     -0.31682941744728      2.27647865875651
  I           1.72433833589213      2.61842032598914      1.95344171292250
  C           0.84868178839620     -0.37192344425841      3.50038621862893
  C          -0.52065947598528     -0.96315614228874      3.62969795731391
  C          -1.61518041371513     -0.22565809873896      3.65393967611037
  O           0.39628623036464      0.64889476103345      0.23926230964594
  N           1.78585208881286     -0.99838011961937      4.51022482635179
  H           0.81497142512137      0.68612720306928      3.79743763225299
  H          -0.56474800611384     -2.03646262342820      3.73301989743384
  H          -1.58837883991527      0.84881111866532      3.56764489080259
  H          -2.58835720710091     -0.67173823720970      3.75015786141395
  Cl         -0.35763385232474     -2.07611716375686      0.86414025985438
  Cl          2.36407399045773     -1.79643284129662     -0.06131430527096
  Cl          1.82101094593899     -3.12150166426271      2.45294725328641
  O           1.27661613772549     -1.57224477612884      5.42990481226370
  O           2.96274979910452     -0.81881733507447      4.33809919017549
