14
Coordinates from ORCA-job NEB E -31.427714402490
  C           1.20289945880565      0.76881718470849     -0.43635247097206
  C           0.63874758853930      1.10142222013661      0.79610163527967
  F           0.72777703170385      1.39799380958888     -1.52290701367542
  H           2.27016617437241      0.58553705335583     -0.52237958895743
  F           1.38192542476657      0.65648321676226      1.86805356631484
  C           0.32755666454068     -1.00765458255078     -0.65959034491479
  C          -1.01094919785485     -0.67064502456631     -0.51923422960126
  C          -1.44620624984584     -0.18856413381143      0.73919789895039
  O          -0.59875563516750      1.23732536570239      0.98624202498127
  F           0.77426262214972     -1.38697839257451     -1.86586972982273
  H           0.87483748768820     -1.52331335411701      0.12629753256718
  H          -1.55454052862908     -0.39878673282116     -1.41172826329497
  H          -1.12062775644676     -0.73370815296807      1.61946039917285
  H          -2.46709308462236      0.16207152315480      0.80270858397246
