14
Coordinates from ORCA-job NEB_product E -31.470171391760
  C           1.40414689888709     -1.85917131655856     -0.88354537824890
  C           1.29451351363448     -0.97762719783609      0.33517702792617
  F           0.69391355786620     -1.29301268553615     -1.90400494805761
  H           2.45296819813480     -1.92447618126431     -1.20848395016966
  F           2.12513156170854     -1.45757238070392      1.30704621728203
  C           0.87659026169766     -3.28239946994433     -0.56817872236963
  C          -0.62090216128762     -3.29648588291300     -0.49039803435058
  C          -1.28341993398418     -3.25609810967037      0.64895575223151
  O           0.63567830101492     -0.02852257348412      0.53329280251383
  F           1.31571486510737     -4.12489739500442     -1.56234309030694
  H           1.34399304977697     -3.63285251168458      0.36140772636154
  H          -1.11876880934371     -3.31633833808516     -1.44830280083125
  H          -0.78215455963489     -3.23332218153214      1.60327646168204
  H          -2.35830474357762     -3.24182377578282      0.67180093633746
