20
Coordinates from ORCA-job NEB E -46.018473852270
  C           0.63493839501537     -0.97455815790066     -0.45069380935302
  C          -0.53020487727076     -1.39752264299546      0.22289173178394
  Cl          2.16779307158219     -1.33216832143701      0.30594139326904
  H           0.68411879699149     -1.13889104325114     -1.52344086961500
  C          -1.79439323663164     -1.60795270732763     -0.59702073584309
  C           0.44126331449291      0.90262591638991     -0.24609596910872
  C           0.35451201268193      1.04439574791087      1.14604312492422
  C          -0.75703207014193      0.45546117553893      1.80760332571367
  O          -0.67053532070807     -1.14420661399190      1.48595173691310
  C           1.60022753808392      1.56408598737221     -0.96520829157330
  H          -0.46902322802668      1.02324585481547     -0.82624122495689
  H           1.27082142835135      1.18780675614185      1.70007035966775
  H          -1.73849560793239      0.68379527738205      1.40094663893678
  H          -0.73672298776890      0.46943204353559      2.89005225433744
  F          -2.30215388097840     -0.41876048897186     -1.05211477132998
  F          -1.54607958754329     -2.34190178039844     -1.70133676251013
  H          -2.58367302522725     -2.09906007520438     -0.01031040678834
  F           2.74965784448942      1.52439805403540     -0.26198001949431
  F           1.84982851824051      0.97353274969577     -2.15694200728088
  H           1.37515290230025      2.62624226866043     -1.16811569769227
