20
Coordinates from ORCA-job NEB_reactant E -46.050188405930
  C           2.49511855604393      0.74601656206936     -1.22101740329795
  C           1.36523772553822      1.45562292254623     -1.18346672786310
  Cl          3.94760924409580      1.02230444694187     -0.33503218668662
  H           2.56892337991238     -0.10731498999049     -1.87421971049745
  C           0.23338023332946      1.03546393417394     -2.11032849347967
  C           3.02118624166153      4.17059886137167     -1.62318463488177
  C           2.99654440649944      3.92161846024936     -0.32486660886941
  C           1.88599417052760      3.20450850005367      0.38010842030770
  O           0.98527597321457      2.54005358405331     -0.48421703061499
  C           4.14556407594764      4.88821534817075     -2.30411532535206
  H           2.21939938494258      3.88588459124988     -2.28881439215945
  H           3.80764076763260      4.24082555629168      0.31398816872043
  H           1.26112429339613      3.93698533462670      0.90387704911481
  H           2.29328885902855      2.51109321587199      1.12368332236371
  F          -0.94501711422712      1.01045514508791     -1.45914743285068
  F           0.10210698173020      1.93981380318704     -3.11199697935287
  H           0.39535603743467      0.04876973592354     -2.56821254870154
  F           3.69422202268979      6.01096161588405     -2.92257018863021
  F           5.10047578308333      5.29430412155468     -1.43432058099546
  H           4.63776897751871      4.26971925068285     -3.07504671627345
