20
Coordinates from ORCA-job NEB_product E -46.055661839360
  C           2.26190167426092      2.16449063069506     -1.51071201137918
  C           1.00460089899193      2.02828707135541     -2.33962189366134
  Cl          1.94757525077672      1.03687601391587     -0.14469352676939
  H           3.14235053786823      1.78800266685820     -2.03802701138003
  C           0.84199084278146      0.66909615697365     -3.05522043523580
  C           2.48782973617846      3.57694736161512     -0.97087055068469
  C           3.64222867238622      3.59556663338503     -0.00521491816783
  C           3.54140433689249      4.00826869855049      1.24238405682828
  O           0.14968586918758      2.86302157182016     -2.41023613156456
  C           2.77560291972335      4.52577587506844     -2.14565559952343
  H           1.57611734439198      3.93339309976405     -0.48155590931763
  H           4.58476832602549      3.25818777365400     -0.41322659348869
  H           2.60792822804252      4.35384606550166      1.65472417646671
  H           4.39034439930278      4.01688585036731      1.90275664486503
  F           0.35137537286717      0.86428674218958     -4.29456320116686
  F           2.01924136716415      0.02524520157654     -3.19428862619630
  H           0.14587201491717      0.01227611946150     -2.50687251206300
  F           3.07465454663162      5.75941162867784     -1.68779341481291
  F           3.85623195530221      4.10435349243711     -2.84730045459097
  H           1.93289570630755      4.61988134613297     -2.84631208815739
