17
Coordinates from ORCA-job NEB E -41.388873708240
  C           0.99293638947613      0.28161573928932      0.44254261416535
  C           0.10320091086141     -0.19085051777977      1.42509457789962
  C           0.92215047110799      1.75088998577880      0.09520495796052
  H           2.02858460077974     -0.02975451594883      0.55389781405131
  Cl          0.67965682151801     -1.58615190170187      2.34119210655434
  C           0.32167239072190     -0.86900520386390     -1.00889776687312
  C          -1.05364794432291     -0.64689071334948     -1.02971825710773
  C          -1.79869493864712     -0.97128913869011      0.13263187393289
  O          -1.14898425614563     -0.03703127919829      1.34421370052249
  I           1.39559010943410     -0.54124298450662     -2.80485392116056
  H           0.69169356340122     -1.77009323261070     -0.53467381261805
  H          -1.47312960629241      0.04525184842259     -1.74218023747992
  H          -1.62187022919575     -1.94595084947246      0.58014193898119
  H          -2.84092744006748     -0.67930689166130      0.14049746353425
  Cl         -0.61013408116220      2.29524892061088     -0.58240253715151
  Cl          1.17271453828283      2.66428914983385      1.63610002776430
  Cl          2.23918870025017      2.23027158484789     -0.98879054297537
