17
Coordinates from ORCA-job NEB_reactant E -41.421777846980
  C           1.77566394305741      0.02238599245934     -0.01539620002070
  C           1.09378583971844     -1.06100907035063     -0.40705052080432
  C           2.17795107608153      1.18696992649656     -0.83422584181513
  H           2.09035955201905      0.08765336692196      1.01421532484827
  Cl          0.76687817960563     -2.27482807600091      0.78948304733934
  C          -0.24603555488207     -3.31343525571307     -4.27490339594541
  C          -0.45991946468948     -2.34863234365936     -3.40188767682005
  C          -0.07509127410940     -2.45502278833439     -1.95912244089301
  O           0.65235555225588     -1.27486841975552     -1.63666850277979
  I          -0.81888887319108     -3.18421025080684     -6.28663660480925
  H           0.21827381321768     -4.25217384001757     -4.02191604965151
  H          -0.91705810672042     -1.41235830385413     -3.68499571421658
  H           0.53854314272734     -3.34464538116557     -1.77560727906734
  H          -0.97898493902227     -2.51260123422015     -1.33657563415618
  Cl          1.64767666305904      1.14645729135084     -2.51118682916470
  Cl          1.53063296299895      2.68297859963954     -0.08210273337168
  Cl          3.96965748787379      1.32353978700988     -0.82102294867195
