23
Coordinates from ORCA-job NEB E -45.154182707960
  C           0.62697762689256     -0.57524931969051      0.61449831277068
  C          -0.70083223055578     -0.90046769260223      0.93985173212606
  C           1.34815650798425      0.43501761005944      1.48069963520120
  H           1.27930083601455     -1.39535533888384      0.32905139159686
  C          -1.30274964635682     -2.20183395190247      0.50221263193471
  C           0.23324918121252      0.35133596648775     -1.02606346222589
  C          -0.64330083341179      1.37202574898500     -0.64086837662687
  C          -1.87558161976089      0.97566246916948     -0.03237982508731
  O          -1.50806145801352      0.08948730192967      1.23625062858264
  C           1.53338732593102      0.76389724509310     -1.67209656848462
  H          -0.17527037308834     -0.50328882962342     -1.56004182524991
  H          -0.23777186410126      2.34495303101746     -0.40853899259232
  H          -2.48409564247057      0.27970343816059     -0.60849850428250
  H          -2.47001906830407      1.77631527203697      0.39210572589240
  F           2.66837384958253      0.51428926746480      1.13307641385069
  H           1.32449828334379      0.10120067753102      2.52524576658329
  H           0.92430244443085      1.44066484037477      1.41099484717560
  H          -1.74088425452036     -2.09310663084103     -0.49473257569998
  H          -2.10590493974929     -2.47965398679969      1.18069221761226
  H          -0.55919764072651     -2.99132513486648      0.47355123765181
  F           2.46116555863930     -0.20081422924954     -1.64155772888773
  F           1.32953574248141      1.03088430861747     -2.98176482152675
  F           2.07472221454641      1.86565793753167     -1.15168786031432
