23
Coordinates from ORCA-job NEB_reactant E -45.182657170360
  C           1.68724612030141      0.01885481010450     -0.18059025098302
  C           1.47012344549960     -0.48017815793298     -1.40102087023078
  C           2.04829532346930      1.40718827152981      0.24870703828357
  H           1.62489547473515     -0.68984385613199      0.63029078291569
  C           1.09522893465278     -1.92360429290925     -1.59051617072492
  C           2.46046163441000      2.63594846953822     -4.94143601027474
  C           2.46993805885116      1.50648041011553     -4.25263192502931
  C           2.08600640543619      1.39510274136819     -2.81292173824370
  O           1.51549019369736      0.11629224982833     -2.61959398779952
  C           2.88138976936643      2.71829472142068     -6.37310719584793
  H           2.16104405961403      3.58518896774015     -4.52365852156020
  H           2.77130752900775      0.57692441643864     -4.71602268173082
  H           1.37467845351015      2.18596409356121     -2.54720210457273
  H           2.99456493575517      1.50737246688573     -2.20787780274652
  F           3.38833080120558      1.69549371695479      0.00981122448743
  H           1.91369649694187      1.51394035659770      1.32831443452345
  H           1.47830421170946      2.18607663057445     -0.26586251703529
  H           1.93005939135114     -2.46283580691220     -2.03488550195824
  H           0.25570680647815     -1.98739534375891     -2.27868135966140
  H           0.83090220393800     -2.39007810348777     -0.64829981314154
  F           3.25961697627213      1.54300703947751     -6.89057588138657
  F           1.89248099784955      3.18216611459665     -7.15973661940695
  F           3.91573177594761      3.56244008440103     -6.54470252787599
