17
Coordinates from ORCA-job NEB_reactant E -43.075027007300
  C           2.58183365291599      0.49495039639310     -0.31521306494601
  C           1.58953837796415      0.13991093630151     -1.12430987840253
  F           3.30449851967754      1.62326733641664     -0.47361045757184
  H           2.88138630821407     -0.09727554112813      0.53159614407885
  F           0.94785356095268     -0.99927193492115     -0.83154394384926
  C           4.09410775591196      2.12870363395558     -3.39397648621342
  C           2.99537043182058      1.39579877676855     -3.44804533474234
  C           1.69328501900199      1.79145809204219     -2.82216332161440
  O           1.03971626934192      0.68795160066451     -2.21526047017881
  C           5.37452090048524      1.71988532466770     -4.05225251012635
  H           4.15194343374000      3.07318403349580     -2.87509083955186
  H           2.98543032573708      0.44485081608735     -3.96504519676689
  H           0.99825444808809      2.10880411735277     -3.60672417592000
  H           1.82753234301865      2.61219574098361     -2.11081647302135
  F           5.29877356059171      0.53714653608565     -4.67644095345206
  F           5.76439960735449      2.61569689248754     -4.97728650906881
  F           6.38365548518385      1.62644324234678     -3.17221652865291
