19
Coordinates from ORCA-job NEB E -43.092292680780
  C           0.45341018058842     -0.03283108336799     -0.95384193705889
  C           1.80082845436100     -0.02446068349362     -0.20412268072019
  C           0.24876165217173     -1.18689130448153     -1.95578537689085
  H           0.48262277121331      0.90039088269582     -1.53327355196569
  H           1.74989584607494      0.61415218080687      0.69546925969873
  C          -0.65082192453985      0.12489208360976      0.09498408348164
  C          -0.55408870326585      1.44862530295470      0.82845956050795
  C          -1.03994248217645      1.67770795871548      2.03350144007169
  O           2.82205165735111     -0.49604603462024     -0.58901826272681
  N          -0.50541553954470     -0.97564766200927      1.09149016536805
  H          -1.65611061541414      0.04552840289791     -0.33477683348271
  H          -0.08291754891291      2.24120938323980      0.26419224631662
  H          -0.96138647228674      2.65148473106852      2.48317334537114
  H          -1.53431953850237      0.91935259223957      2.61889696913599
  Br         -0.07975436445168     -0.41605764625320     -3.75084960471525
  Br          1.70710248218694     -2.46042453884106     -2.16188479166820
  Br         -1.33084973096462     -2.30533478904139     -1.56411684619726
  O           0.57673317982153     -1.51582148034580      1.14133303667824
  O          -1.44579930370968     -1.20982829577433      1.79616977879582
