19
Coordinates from ORCA-job NEB_product E -43.105688602920
  C           0.81195439410226     -0.77120025109140      1.59841401429693
  C           2.16731831860272     -1.26946852253046      2.14746480549630
  C           0.42732897352410     -1.53718493847662      0.33913856918145
  H           0.96721282838935      0.27974610215572      1.31459362712570
  H           2.56084810043228     -0.63744770235133      2.95734904676844
  C          -0.28189726456992     -0.81191857958673      2.67451125113226
  C          -0.20664488723220      0.37106958337774      3.60277681368627
  C          -1.22796256870005      1.17783969277352      3.81880847123878
  O           2.79915658808682     -2.14293662305498      1.63641036044297
  N          -0.11388275280444     -2.01659397386371      3.54096152379296
  H          -1.28674005525106     -0.87016307193454      2.24157770030665
  H           0.74255489759245      0.51167653985484      4.10043653615511
  H          -1.14658691073747      2.01634162016241      4.48745145858627
  H          -2.17924997800362      1.03821061236353      3.33299598116295
  Br         -1.21832341410165     -0.77675013360365     -0.42849636337170
  Br          1.80458716609666     -1.35344685619393     -1.02663089720795
  Br          0.11660278308887     -3.42690453895456      0.70349583952004
  O           1.02386142296646     -2.34200980523327      3.79141014220570
  O          -1.11063764148156     -2.52085915381257      3.97253111948088
