19
Coordinates from ORCA-job NEB_reactant E -43.108416454320
  C           1.62786339871516      0.03052519376611     -0.14591136181112
  C           0.88338421348170      0.41860200334090      0.89239009661583
  C           2.08155636573093     -1.36914208698260     -0.25676341575495
  H           1.90909261425950      0.72534791978547     -0.91785303449659
  H           0.54251060792993      1.44174587128365      0.99259806950029
  C          -0.88562795640784     -1.16938570622261      5.03885382203768
  C          -0.66281320382902     -1.17890937372931      3.73194110323509
  C          -0.21784765701731      0.00163281318809      2.93849861845659
  O           0.53644929098717     -0.46522854655050      1.83949992111845
  N          -1.34555017759648     -2.34800874801031      5.72280331961042
  H          -0.75164346019767     -0.32049550996515      5.69219689017845
  H          -0.81225109025953     -2.09422564770883      3.17096632775913
  H           0.38292550553996      0.68771071137644      3.55030429025835
  H          -1.10720845928999      0.54388609652586      2.58012833289069
  Br          3.13978708215773     -1.65514936427692     -1.85864144131882
  Br          3.17789544737000     -1.89039417042773      1.30104014305703
  Br          0.55454052321977     -2.61656882014755     -0.30420722234283
  O          -1.57255256699310     -3.33909651463342      5.06895493736476
  O          -1.47481047780090     -2.25254612061161      6.92280060364154
