21
Coordinates from ORCA-job NEB E -45.139992206790
  C          -0.50653263113381     -0.20260631242314     -1.35225610787301
  C          -1.80537888580722      0.19610458465906     -1.05241682387040
  C          -0.12215396595839     -1.62624723843227     -1.06299699862643
  H          -0.05113848466669      0.13230482423005     -2.27671914617699
  I          -2.52248779010824      1.88524727286617     -2.22940435290549
  C           0.48967721366593      0.95083747662686      0.09414105230458
  C          -0.23659407025518      0.56662444395537      1.23217598569233
  C          -1.57226474474067      0.91653254597569      1.36126052164857
  O          -2.39395817401583     -0.04234084511734      0.00708924993120
  O           1.79276921770754      0.72662438069911     -0.10335856106118
  H           0.20182093226517      1.86485310905392     -0.41965848599806
  H           0.13945774925608     -0.23810610810763      1.84478113992934
  H          -1.91788282681309      1.86685343644484      0.97697844768400
  H          -2.12967216571491      0.53446164817035      2.20147121501902
  F           1.16812652422458     -1.85817454912346     -1.35425226313462
  F          -0.30060592025136     -2.03438818685399      0.19925956850415
  F          -0.82813361111497     -2.47872954160838     -1.82990542973625
  C           2.49718453976363     -0.13137744183828      0.77961568511689
  H           2.52736390667677      0.29819019564262      1.78460825534196
  H           3.50483428888199     -0.19481907516183      0.37523710664689
  H           2.06556889813866     -1.13184461965771      0.82434994156350
