21
Coordinates from ORCA-job NEB_product E -45.168054740820
  C           2.77333904755455      0.91837333523770      0.85830299542210
  C           1.60546375651574      1.54104821761491      0.15721585789626
  C           2.49564563129346     -0.57072583072434      1.05887023256782
  H           3.67171665186014      0.98974746489999      0.23669610063147
  I           2.17709240473534      3.31273586820764     -0.94141234433621
  C           3.05168062903195      1.75155581436347      2.18184228302400
  C           2.70800017281510      0.97359285704966      3.42150847814027
  C           1.67826336272973      1.27572825992127      4.18909750645798
  O           0.47516463175465      1.20676224402004      0.19587150559463
  O           4.34363639187484      2.28627662111405      2.15009987198753
  H           2.40933003960888      2.64125006115632      2.14607775958750
  H           3.35867141380984      0.14769499224362      3.66794299085970
  H           1.01449599177221      2.09292181238784      3.96011885067086
  H           1.45342974790049      0.70814849133564      5.07469309057251
  F           3.54407304975739     -1.20171510310126      1.61204005370890
  F           1.43602959543106     -0.84516453549627      1.81556734130455
  F           2.29478865376994     -1.16646509932401     -0.12675685777365
  C           5.42467749345600      1.41968409356024      2.43712631312297
  H           6.31735993900694      1.97277075418602      2.15188130762326
  H           5.37821996245104      0.48980813454623      1.86373197446672
  H           5.47522143287072      1.18427154680123      3.50358468847082
