21
Coordinates from ORCA-job NEB_reactant E -45.166321534190
  C           1.60244519663100      0.14710832304303     -0.01983028658402
  C           1.47720151071109      1.42413592672889      0.35226181435687
  C           1.58187762112531     -1.07048022076148      0.83753787628283
  H           1.68434153171506     -0.08866984239048     -1.06754315464162
  I           1.42148743357778      2.87569257462424     -1.19827552535359
  C           3.91979709926130      2.63093408157400      3.38884137733157
  C           3.28847034345238      1.58261318526721      2.86457106063651
  C           1.79853225364083      1.54197345384931      2.76527948810409
  O           1.34820868633620      2.05822715031680      1.49230782559836
  O           5.23808410596025      2.82838829023259      3.53012250111978
  H           3.37247484181055      3.47393228157574      3.79210109471566
  H           3.82333390067189      0.74357058923434      2.45113436440733
  H           1.34035173406381      2.22935229442211      3.47891873390428
  H           1.40701409338371      0.53901723375724      2.93462583420737
  F           2.66627982358530     -1.21152374368197      1.63326256493115
  F           0.51841310118185     -1.14074374863489      1.66520491083797
  F           1.53951644220107     -2.17299048749127      0.08171786946739
  C           6.11206193564792      1.82815886924216      3.05226283909784
  H           7.11837778521733      2.18254952070477      3.26608355917232
  H           5.99552914259254      1.68455250647499      1.97419133090042
  H           5.93990141723284      0.87720176191267      3.56422392150751
