21
Coordinates from ORCA-job NEB E -50.569251097790
  C           1.14911070792652      0.71198833128033     -0.55202391166049
  C           1.51470490079027     -0.45102225711630     -1.29900243301686
  C           0.18837620207582      1.60449351172537     -0.95283541119203
  H           1.99282736940729      1.17440231253141     -0.04466544681192
  O           2.64009785757913     -0.42110703717386     -1.95116515961842
  C          -1.42629908622249     -0.54369000785762      1.17971284536063
  C          -0.32461413111306     -1.11841980342885      0.71366191582814
  C          -0.28489251226714     -1.84795733876389     -0.58986796868939
  O           0.87590134822597     -1.58179240906059     -1.37653711174016
  C          -1.54732431737508      0.12745941588651      2.49336116338069
  H          -2.34416586033160     -0.55847372578840      0.60563717749976
  H           0.58824582577963     -1.14121239083499      1.29403753880222
  H          -1.17116037247309     -1.62732766143309     -1.19489137026330
  H          -0.24299204003012     -2.92886598079102     -0.41038009103880
  Br         -0.06415307362754      3.20694139767338     -0.00250774596985
  Br          1.87181019483528      2.50525302421506     -2.98914589646313
  Br         -1.29404792207675      1.10346892019994     -2.00523224838686
  H           2.81590820311461      0.51604349563244     -2.28068505029575
  Br         -2.69369314987904      1.70973143686157      2.34180938042185
  Br         -2.39865506167376     -1.12850439574557      3.77372992680001
  Br          0.15501491733516      0.68859116198817      3.24698989705368
