21
Coordinates from ORCA-job NEB_reactant E -50.601720991530
  C           1.37426661601953     -0.50558541273056      0.21053256047782
  C           2.03305253416283     -1.47800816957677      0.88198289976224
  C           1.84593126743546      0.08540801512536     -1.04048747903075
  H           0.44529612097687     -0.12124551788451      0.59221698836986
  O           3.18583119235547     -2.03713134552793      0.51845127119623
  C          -0.31491579498611     -1.99218997847899      4.97342771905292
  C           0.22020766496313     -2.45075426880989      3.85363680161160
  C           0.41491617570296     -1.61545164238633      2.62919870219750
  O           1.62331150866674     -2.03485954439415      2.02592871418769
  C          -0.56823283422919     -2.77522310120006      6.20226582154097
  H          -0.63175932084170     -0.95905711040917      5.05799565357091
  H           0.55356894581346     -3.47372848924776      3.74960091045328
  H           0.45554310141190     -0.54808895455269      2.88064395077786
  H          -0.42766588509627     -1.78708021377017      1.94149074632220
  Br          0.62562499526313      1.44619061568604     -1.68842310861671
  Br          3.66350947260854      0.94781112221554     -0.86150899936375
  Br          2.05561304153079     -1.28067510646606     -2.51712963298211
  H           3.54319228156782     -1.67840119011118     -0.30628133900699
  Br         -2.50394077345464     -2.73895316657882      6.59606992238723
  Br         -0.01393859736708     -4.62976397183858      6.12076415849015
  Br          0.36948828749636     -1.92501256906328      7.71492373860182
