21
Coordinates from ORCA-job NEB_product E -50.615099435150
  C           1.80351515869598     -1.01400431518120      2.29645938912997
  C           2.68773979075410     -2.24149582280889      1.92484989268771
  C           1.67608193115820     -0.05563509319039      1.12104377359849
  H           2.40850887513533     -0.47946308723903      3.04408323894519
  O           2.26931099745034     -3.03526174418483      0.94924274300118
  C           0.43349798830772     -1.37676379990285      2.92480309328812
  C          -0.10229569160798     -2.71553368277978      2.48658800128563
  C          -1.24182358070622     -2.86569229785613      1.83580901338887
  O           3.71433950976960     -2.43009122254956      2.50006034780988
  C           0.49723107334508     -1.35654984115664      4.45630458297859
  H          -0.29547848491310     -0.60253413923608      2.64355913864612
  H           0.48405157978604     -3.57554126030103      2.78254259721134
  H          -1.85702131056001     -2.02909430188994      1.54829403617366
  H          -1.60315301769547     -3.84130485130881      1.56432731215932
  Br          0.94943829777016      1.67890988230922      1.70498772184828
  Br          3.43916946984579      0.26348327372658      0.31649628585933
  Br          0.47502199060628     -0.70787976387200     -0.29272041831473
  H           1.40179474011797     -2.82768362011572      0.56557712600341
  Br         -1.28232395622190     -1.73655834544226      5.17562423413947
  Br          1.75032553527987     -2.68159793692637      5.16726326912443
  Br          1.02036910368224      0.40649196990570      5.14080462103571
