18
Coordinates from ORCA-job P E -26.956460637430
  C          -1.35255734055533      0.62314083580801     -2.02737713530784
  C          -0.45003538363349     -1.47480645309946     -0.49599987881009
  C          -1.87270273819354     -1.48662924540985     -0.95720869025823
  C          -2.31115974377888     -0.49615171242798     -1.71677304795968
  C          -0.70160466965777      1.09198852681607     -0.70979779327585
  C          -0.04953588500032     -0.08210951056846      0.05404490669526
  H          -2.50135250014242     -2.31491658043332     -0.67244367307449
  H          -3.31974930240994     -0.43547478441144     -2.09234520688949
  C          -2.02339605057668      1.72976257369693     -2.66614659349872
  H          -0.27342816800292     -2.23200668974220      0.26798039445012
  H          -0.56697965615073      0.26370172697507     -2.70768683058203
  H           0.19811511253319     -1.71034512371841     -1.34815312179667
  H          -1.47947784725646      1.54156208667329     -0.08900019443334
  H          -0.34182498001620     -0.02428261587430      1.10822837291151
  H           0.04293010634133      1.86294666396278     -0.92161374909281
  C           1.38905866210204      0.03606200285814     -0.00528080416089
  N          -2.57261970591641      2.60252915470087     -3.15841020362320
  N           2.52572009031454      0.12829914419427     -0.08109675129358
