18
Coordinates from ORCA-job TS E -26.858176647470
  C          -0.65336935406525      0.63030666339340     -1.18663968809714
  C           0.72137157528641     -1.65621470787602     -0.13417150152436
  C          -0.61591981424371     -1.65529601146485     -0.35947397405765
  C          -1.29741728400405     -0.54877819352817     -0.90387777551571
  C          -0.01721696068919      1.19586638292060      0.88112203485573
  C           0.72382987545963      0.17793068021475      1.41006906092505
  H          -1.22174787761291     -2.45529169637714      0.04411938604415
  H          -2.37887602260405     -0.56395501302182     -0.90577562626654
  C          -1.38680030564328      1.76248598187710     -1.59406212084938
  H           1.18626684619807     -2.46229700160133      0.40900281811542
  H           0.39654188713736      0.65074777231841     -1.44214610889211
  H           1.39763111131077     -1.02717914937303     -0.68561139291746
  H          -1.03978574460872      1.33149798425260      1.19011943018332
  H           0.29027574147596     -0.53481993266404      2.09641767625623
  H           0.47319302579475      2.05813443753824      0.45956957424342
  C           2.13044703771457      0.19108636664889      1.33873223935907
  N          -1.98474192887817      2.69101578156480     -1.90329748668995
  N           3.27631819197179      0.21475965517759      1.28590345482792
