20
Coordinates from ORCA-job TS E -37.738782926930
  C          -0.36097733058710      0.36042613550581     -0.99136960187172
  C           0.93065433400911     -1.86708847528636      0.20577496197236
  C          -0.35978846449245     -1.92494637758680     -0.20680299633389
  C          -1.00000087222319     -0.84377569682019     -0.84087593038589
  C           0.00506048484153      0.90610491742554      1.08854017147421
  C           0.86125241290932      0.01240855788306      1.66219340080844
  H          -0.98212352807176     -2.75082534172664      0.10737179732822
  H          -2.07206019542613     -0.88400881505169     -0.96852840891854
  C          -1.11929342546587      1.52343123832540     -1.54258836001864
  H           1.34645125423826     -2.65748747031054      0.80786267088586
  H           0.69721686184192      0.41823288773337     -1.18902605533785
  H           1.65182848873204     -1.22579754800090     -0.26535060189476
  H          -1.03905779429813      0.86070849863950      1.33483448139493
  H           0.53769186485339     -0.76777058001172      2.32940876325390
  H           0.38124174757429      1.86575054150918      0.77075105773635
  O           2.20501033867060      0.19768820697935      1.71338784093645
  F          -1.38319803426812      1.39826214310627     -2.86062637774645
  F          -2.30574492384772      1.71364320726077     -0.94487230365545
  F          -0.44067198599314      2.68032968067379     -1.41741125869643
  H           2.44650876700315      0.98471428975282      1.20732674906889
