19
Coordinates from ORCA-job NEB E -39.648128407370
  C           1.13357002093257      0.45580844840665      0.37221314774078
  C           0.49601806539616      0.29821993440143      1.59218670340235
  C           1.03446899999592      1.73183751946863     -0.35160575393337
  H           2.08478387917665     -0.04289982768125      0.22485936689258
  Br          1.32035509683934     -1.18875192794797      2.68051124739439
  C          -0.22786226168984     -1.18173507477790     -0.59568013559248
  C          -1.44294565438405     -0.55137068537183     -0.26994145098129
  C          -1.94513319060812     -0.55177087370018      0.99776186591967
  O          -0.58964604472107      0.70087903612396      1.95839608956373
  N           0.18424768985180     -1.30812016372197     -1.86017556075737
  H           0.20967116205703     -1.87966130950034      0.10697110791421
  H          -1.89450911344494      0.07972407488809     -1.02295235243939
  H          -1.64724466185764     -1.29878663313700      1.71552259882190
  H          -2.83432229582593      0.00689737897424      1.23132320762921
  Br         -0.66556604674154      2.64645703380482     -0.28071970385215
  Br          2.41814890871952      3.03858506195091      0.39550699090776
  Br          1.52368241440123      1.52254358206004     -2.23964359971754
  H          -0.21823077647764     -0.72589617490374     -2.57858190580376
  H           1.06051380838056     -1.75195939933659     -2.07595186310925
