19
Coordinates from ORCA-job NEB_reactant E -39.674091274860
  C           1.61865201741355     -0.01379336985502     -0.07846423813980
  C           0.80717887862463     -1.08345043948992     -0.03229945608018
  C           1.99318567263944      0.54750955993969     -1.38527831221071
  H           1.99518708185347      0.44607608572861      0.81872985962515
  Br          0.34182306453426     -1.83322985282163      1.66116475803549
  C           0.26436396225003     -3.86473521883308     -3.33291757067386
  C          -0.62496861217792     -3.20618969628384     -2.58473728926223
  C          -0.36211414577973     -2.87789136015871     -1.15764574107534
  O           0.32104710365018     -1.60689892206238     -1.13279991688361
  N           0.08207279594148     -4.22143069410763     -4.63902576799748
  H           1.18225117938191     -4.23180678578070     -2.89265209030092
  H          -1.53016192003880     -2.81230943003103     -3.01855422884945
  H           0.28499713111657     -3.62696562712955     -0.68818302903655
  H          -1.29062995581810     -2.78299104479554     -0.58476020792807
  Br          3.22195882248068      2.03522493040430     -1.19404254110731
  Br          2.85980059624349     -0.80356930014668     -2.54044724572314
  Br          0.41668804272839      1.18338576579086     -2.40092910986546
  H          -0.65478749244455     -3.74439146445476     -5.13416844655294
  H           0.90555577740100     -4.41234313591297     -5.18368942597359
