23
Coordinates from ORCA-job NEB E -62.272921641610
  C          -0.26019408875629      0.45906158516251     -1.23875306361883
  C           3.40995764815296      1.10344343399950      1.61780369521913
  C           0.83670594846794      0.09005918710854     -1.89449978050574
  H          -0.83710871887404      1.25477756893819     -1.69803755951111
  C           2.93302827268572      1.87544227816600      0.67630355740111
  C          -0.94980055994601     -0.05358376760343     -0.01022296872164
  C          -2.21945507308815     -0.75261117148733     -0.45868186210235
  C          -3.42999012952566     -0.37843855266690     -0.10411466645642
  O           3.87965522825731      0.44367882871570      2.43221614950016
  C          -0.19265574028385     -1.00841365525747      0.90884520757584
  H          -1.20886251695326      0.81172504792364      0.61472956451682
  H          -2.03736942168013     -1.59848171587762     -1.10493311240525
  H          -3.61109708592632      0.46717238309258      0.53730372470332
  H          -4.29885239933176     -0.91309022173461     -0.44451946829028
  Br         -1.53557004316238     -3.83325321863853     -2.71258582939680
  Br          1.27312440783532      0.98908034145685     -3.51489464417742
  Br          2.12099315088400     -1.21850313651088     -1.45170754103762
  Br          3.88684196476622      2.04904723826800     -0.95751251235659
  Br          1.30586181001881      2.80623924038448      0.86869827409360
  Br          0.79591767658761      1.34415843884346      4.22131589048516
  F           1.00994473774737     -0.52406195983475      1.28536160381793
  F          -0.88550564432228     -1.19646828059474      2.03976394780412
  F           0.01443057644689     -2.21697989185316      0.38812139346289
