23
Coordinates from ORCA-job NEB_product E -62.360606223750
  C           1.67942401860126     -1.77613482758744      0.97405278660391
  C           2.89302703921699     -1.19587343281157      1.69370901564060
  C           2.16816385300527     -2.50202131227324     -0.27951505341803
  H           1.07619601611317     -0.93359988731465      0.60441176800321
  C           2.67536446036500     -0.00846784340646      2.63288359002335
  C           0.73443899608047     -2.51159920920177      1.96873537048316
  C          -0.64641513749452     -2.76489395594881      1.40296093219682
  C          -1.55468011018252     -1.81418139935209      1.28846784121520
  O           4.00769662219829     -1.60103132292828      1.56150285507406
  C           1.27857492934358     -3.80893252543823      2.56734931745940
  H           0.61396944384433     -1.83912229443310      2.82769399250821
  H          -0.86608528246911     -3.78158885048026      1.11432888279224
  H          -1.36805323912517     -0.79270570185374      1.57850520807640
  H          -2.52855133462127     -2.02945433245042      0.88871172493380
  Br          0.68391115380250     -3.16846055425925     -1.34967279718303
  Br          3.05981167713502     -1.12752752275189     -1.39006328719614
  Br          3.42830931296070     -3.94892396971099     -0.02506702042368
  Br          4.21088540492200      1.17162865964549      2.46788428342011
  Br          1.06763078732991      1.02463801347009      2.34940695350256
  Br          2.63412441636792     -0.76952599974926      4.45402839922764
  F           2.55164248505271     -3.70084884413886      2.96862045311372
  F           0.56344590809252     -4.13326692195200      3.65196731931959
  F           1.20546857946095     -4.85280596507328      1.73959746462691
