15
Coordinates from ORCA-job NEB_product E -30.014586024890
  C           1.01648555121351     -1.20941403451363      0.78058134862822
  C           1.77211338755586      0.06159513168560      1.11467141157960
  O           1.90275296966312     -2.20908884713380      0.38329524127894
  H           0.25600168675798     -0.98895139666600      0.01427755846931
  Br          0.64796612589915      1.66149037618181      0.96573924361970
  C           0.32943225619823     -1.71606252763200      2.06074961049664
  C          -0.64296867850424     -0.76885410043100      2.66700416704461
  C          -0.57912941046182     -0.37650879359720      3.92655493793228
  O           2.90616575154688      0.17181537158785      1.41609660444991
  Br         -0.62690807506398     -3.37128476707467      1.56469244072794
  H           1.10003212009150     -2.03142926775859      2.76725985461000
  H          -1.44279508134068     -0.44000220890377      2.01755106043175
  H           0.20348673010059     -0.70878458084291      4.58926370607397
  H          -1.30576914028281      0.29969587998354      4.34021565680622
  H           2.37013380662671     -1.96571623488522     -0.42345284214908
