20
Coordinates from ORCA-job NEB_reactant E -40.524526985620
  C           2.01068094955534      0.23426174894188      0.06688299084112
  C           1.96344287574974     -0.20652978438158     -1.22656625169870
  N           1.38862448357380      1.32921723611398      0.66032709643908
  H           2.55607625224382     -0.38484302553911      0.76182083078019
  O           2.46705816122030     -1.43197449494395     -1.40609472169418
  C           3.37469383077598      3.06587014852637     -3.45971280698391
  C           2.82496088292300      2.40836317968774     -2.45159980216931
  C           1.47155383799229      1.77530036880771     -2.53845582177008
  O           1.54343134931535      0.35757904594321     -2.34916970304224
  Cl          4.91428966916472      3.81124351792458     -3.35518663807878
  H           2.88713099942402      3.20207670126616     -4.41337923081457
  H           3.35002260589417      2.30165607351838     -1.51309325097095
  H           1.04864015740241      1.88326302586155     -3.53833705885710
  H           0.79675450460407      2.21925826878210     -1.79495836258368
  O           1.76503892414334      1.63982312764986      1.77641057546941
  O           0.47901304847388      1.90545949990751      0.07124926334658
  C           2.56122919819372     -1.93970913362639     -2.72912044549228
  H           3.04673916337283     -2.90744641413320     -2.62911080709125
  H           3.16019791431131     -1.28042587928706     -3.36077762424632
  H           1.57072119166592     -2.05994321101973     -3.17162823138303
