27
Coordinates from ORCA-job NEB E -48.164384134540
  C           0.02930418556852      0.66812494522841      0.66421271948618
  C          -1.04520725413674     -0.21010796742805      0.77555527933561
  C          -0.18052534648513      2.06861066592929      0.12921168844418
  H           0.72903220162726      0.61353449139945      1.49004519506321
  O          -0.97141626974142     -1.11988074848209      1.77484931299248
  C           0.92847614511247     -0.28413079267663     -0.94143181094872
  C           0.02079691889181     -1.19494366805991     -1.46285119292909
  C          -1.30807186932231     -0.70258025360200     -1.65322462189755
  O          -1.89677804177771     -0.41448284208068     -0.18077176339004
  C           2.22625527099911     -0.82712308326385     -0.42106237074064
  H           1.05173847809283      0.66627872532218     -1.43978009178256
  H           0.12506993063169     -2.23392398987660     -1.17584974692579
  H          -2.04109310756878     -1.40199580360685     -2.03833446052088
  H          -1.38318491421932      0.27198306951585     -2.12908687623167
  C           1.09986648179753      2.89576657465915      0.12323650854325
  H          -0.90205788163865      2.56411606804096      0.78649848733037
  H          -0.62652524493906      2.04573466406534     -0.86699461041122
  H           1.51457207471677      2.95226365176646      1.12629231732151
  H           0.88812395541166      3.90589366938527     -0.21919795182705
  H           1.85899797304559      2.46839785129343     -0.52627979466749
  C          -1.87260215325688     -2.21136242421686      1.73314031044548
  H          -1.68013051442813     -2.78600896029219      2.63561017271137
  H          -1.69775316344122     -2.83230972315225      0.85194665102321
  H          -2.90695176797592     -1.85875657395501      1.72134195497714
  F           2.06455892705886     -1.84557605589630      0.43549264079833
  F           3.01548179738966     -1.29515409572562     -1.41189573187841
  F           2.96002318858750      0.09763260570911      0.21932778567879
