27
Coordinates from ORCA-job NEB_reactant E -48.191030841060
  C           2.06016091246821     -0.06202942394138     -0.00001743463907
  C           2.01835088737202     -1.29352573646715     -0.49267860002485
  C           1.61082792182621      1.16220068333960     -0.73050991806186
  H           2.46998730968736      0.07146221523769      0.98894573353586
  O           2.56810385404654     -2.35292693706771      0.17810484798271
  C           4.50970981775296     -3.14508471557266     -2.38966010065171
  C           3.19091352768233     -3.09874014103008     -2.48381695653357
  C           2.41480390937788     -1.84465636547794     -2.73926385836055
  O           1.45744110716718     -1.58425298519957     -1.72103166745318
  C           5.25510659340037     -4.41293805155462     -2.12487482976891
  H           5.14452355813111     -2.28021915937121     -2.50695533421887
  H           2.60069716153093     -3.99487896446661     -2.34645578326743
  H           1.82298415273166     -1.95754233808407     -3.65306477801558
  H           3.09338519080256     -0.98868377392633     -2.84504411621866
  C           2.76561973610904      2.14489375566574     -0.92426598700742
  H           0.82372156476086      1.65118327139293     -0.15058808335591
  H           1.19199753330580      0.87729080914186     -1.69628322715464
  H           3.17703271618191      2.44216968775798      0.03739700657563
  H           2.42090197149427      3.03588843561885     -1.44344799068665
  H           3.56127233695775      1.68948774051927     -1.50965221736374
  C           1.69483256951790     -3.44648506888216      0.42123537394400
  H           2.32450884021757     -4.32107641664400      0.57440136806610
  H           1.02152619735925     -3.61294900202402     -0.42261154279807
  H           1.09971156574000     -3.25683361929051      1.31992705589354
  F           4.46728347383029     -5.42475628753226     -1.73471350643731
  F           5.91125004041189     -4.84914252905909     -3.22052934634488
  F           6.18834555013613     -4.26165508308254     -1.17244610763497
