16
Coordinates from ORCA-job NEB_product E -31.445665393130
  C           1.45027968307971     -1.00319303858737      0.65031887307229
  C           2.45504947229549      0.01889131556485      1.19451083789655
  C           1.57789572601490     -1.16258639007134     -0.78023131988211
  H           0.44022049447637     -0.64067570785564      0.88061342463819
  O           3.41980462664864      0.28164804549619      0.32667072574479
  C           1.64334889210216     -2.35981784537107      1.36331808101685
  C           1.21696413084984     -2.32001264972978      2.79146487432497
  C           0.42654605230749     -3.22970567744115      3.33137303392297
  O           2.37022894859969      0.51507071680739      2.28165846643582
  Cl          3.39602458249655     -2.80094058647507      1.29481758801148
  H           1.11697441157635     -3.14486011694898      0.81328813754525
  H           1.61252760897725     -1.49888279538983      3.37150764545228
  H           0.14307699262156     -3.18471160540955      4.36805038975376
  H           0.03345284167522     -4.05555609369512      2.76077271143259
  N           1.65443129525445     -1.30772754956896     -1.90991543922031
  H           4.07027424102431      0.90155997867542      0.69498196985462
