27
Coordinates from ORCA-job NEB_product E -35.520826715860
  C           2.29860279685407     -0.12488749211739      1.54238173607212
  C           2.34567318318215     -1.47974392098165      0.83955826404871
  C           2.33004755693420      1.01019819983195      0.50833196824061
  H           1.39678210461442     -0.05996579591391      2.15569315657567
  C           1.39844063307848     -2.51121760135624      1.39798483593620
  C           3.51953238400617     -0.09783360185778      2.48849171234052
  C           3.63009702498893      1.20222698754019      3.23085346111351
  C           4.62707395398525      2.05509499047296      3.08698422513805
  O           3.10244389661697     -1.69167335763488     -0.07341405466925
  O           3.35074355027192     -1.17158303071932      3.40369266362143
  H           4.42444552931868     -0.26040437192694      1.88204606266034
  H           2.83581788656019      1.37909067944935      3.94415024671775
  H           5.42673285083967      1.87748228016604      2.38641464223374
  H           4.68006412783830      2.97208638351352      3.64911441708791
  C           1.57999144794117      2.25494583630094      0.96444017493911
  H           1.87838702491761      0.64518368725494     -0.41676426680887
  H           3.36636779855504      1.26397762125501      0.28179239306313
  H           0.53823770107853      2.01911488910954      1.17173873683547
  H           1.60871951100357      3.01256936428890      0.18481754638960
  H           2.02706430298555      2.67127919314643      1.86288831092197
  C           1.51888428057418     -3.85784752419467      0.69937806183525
  H           0.38136911865734     -2.12011517961945      1.30897248578317
  H           1.62406441170331     -2.59975984154217      2.46352194419675
  H           1.30631721844996     -3.75145891338262     -0.36160594995033
  H           0.82339333983567     -4.57490730318020      1.12835430390439
  H           2.52999254868817     -4.24256183636900      0.80245385049278
  H           4.08601381652050     -1.16239034153354      4.02552907128026
