23
Coordinates from ORCA-job NEB E -44.480617541730
  C          -0.22251533263481      0.98212468280870      0.22954853213577
  C          -1.58904846179357      0.92707200464857      0.03310134288939
  Br          0.85738102606523      1.48685523311432     -1.78687785560066
  H           0.14702671658721      1.86247886048513      0.73835815900624
  C          -2.49679414059869      2.07302184235235      0.35077651962566
  C           0.43509444590111     -0.36547396935459      0.65236392231403
  C          -0.14380037900987     -1.40087403788905     -0.21401753679762
  C          -1.48771502676590     -1.27459704451996     -0.77616212049269
  O          -2.25241052181113     -0.15795921332646     -0.45418901255180
  C           1.97791015964803     -0.32604297005562      0.74066242806172
  H           0.06923884248485     -0.50048895378734      1.68251571801706
  H           0.48526183412156     -2.14256443359987     -0.67175962454751
  H          -2.11509640857783     -2.14229433299117     -0.52595828324058
  H          -1.38181785348524     -1.29185424084092     -1.87453068209457
  F          -3.64608099790106      2.03139465721759     -0.32321095855711
  F          -2.83321675302919      2.10250472015983      1.66641304749588
  F          -1.92578721209511      3.25992733440139      0.10683353091272
  C           2.73562042271391     -1.14243989496371     -0.30020222293166
  H           2.27565580325036     -0.67494384596308      1.73115915127386
  H           2.29129920003818      0.71448557718899      0.65824769366305
  H           2.61094459810201     -2.21034376795911     -0.13450736112587
  H           3.79598943227138     -0.91689015491979     -0.22215610103971
  H           2.41286060651858     -0.89309805220621     -1.30640828641561
