23
Coordinates from ORCA-job NEB_reactant E -44.530785867890
  C           2.33673005177379     -0.00260622054194      0.76593235989404
  C           1.51516182396650     -0.65751995283824      1.58643410732880
  Br          3.44522117715180     -0.69921517148490     -0.58244767983133
  H           2.41161446111878      1.06976092649882      0.83013561794649
  C           0.72358002212976      0.16194372279692      2.59875064662678
  C           3.84171177642216     -2.57507349214540      2.61952692455152
  C           3.33575291028276     -3.08962450443382      1.51087530977118
  C           1.88953673657553     -2.99065866542158      1.11662150493710
  O           1.18225309977843     -1.94380131892947      1.77290198190647
  C           5.27448548749972     -2.62425543511143      3.04496081406259
  H           3.19210119351309     -2.05441324270451      3.31405708022498
  H           3.94643013689744     -3.62276711920334      0.79970000373945
  H           1.34806727028160     -3.89167210166645      1.42505670677710
  H           1.79118627087096     -2.89199228400659      0.03012219592675
  F          -0.58710393277668     -0.07696902707637      2.51182407511032
  F           1.09412655350163     -0.13569091891983      3.85129905680103
  F           0.88514271959854      1.48305831753034      2.45813864971290
  C           6.21632328005365     -3.30326570811000      2.06028088557010
  H           5.32147393725906     -3.13540267590431      4.01177146670716
  H           5.60960344383256     -1.59658230936839      3.21887941276381
  H           5.93774036724121     -4.34409898429852      1.91527827552526
  H           7.23407510798857     -3.27253363520456      2.44168565177988
  H           6.19538610503913     -2.79672019945643      1.09831495216760
