23
Coordinates from ORCA-job NEB_product E -44.528044986020
  C           3.18854468952556     -0.87084667365585      1.48538255605181
  C           1.71919853154522     -0.59220185083037      1.41055835096296
  Br          3.88777296141109     -0.74266663023324     -0.33322738428974
  H           3.71042149378554     -0.11381679201892      2.07476672671204
  C           1.21291765030373      0.27166254880128      2.60792877452095
  C           3.36700443596129     -2.27328777176581      2.12691536043606
  C           3.04514686187559     -3.35708821941711      1.14097489628061
  C           1.93028488461772     -4.06195218405846      1.17089314727203
  O           0.95784714996231     -0.98092209274483      0.57847597536673
  C           4.75085426309509     -2.44261288706505      2.77764146793412
  H           2.63225271375792     -2.32930324347868      2.94139885919557
  H           3.78264733116163     -3.53044254413958      0.37118566861445
  H           1.17288439556956     -3.90663194355011      1.92266997309789
  H           1.72671237874633     -4.82681593310121      0.44239025097085
  F          -0.10349373155293      0.43050787087718      2.60050040954732
  F           1.55050420724577     -0.27925319041012      3.78731213172965
  F           1.77846371271134      1.48762137404247      2.57867624714322
  C           5.95109004187457     -2.24170177843178      1.86132522449704
  H           4.77951125555914     -3.45456609220933      3.18834971904679
  H           4.82195524903685     -1.74706561864216      3.61797972455582
  H           5.89509051982522     -2.87930895699768      0.98385857392809
  H           6.85910618167850     -2.49487915144849      2.40356449511107
  H           6.03848282230294     -1.20962823952216      1.53297885131467
