20
Coordinates from ORCA-job NEB E -47.901462114130
  C          -0.21300467575284      0.05368815605559     -0.89481961281214
  C           0.84452751435110      0.61307710367672     -0.13842567145071
  C          -0.09578135434275     -0.97819309947039     -1.98173955357951
  H          -0.84472216998465      0.86127331702326     -1.26155797705175
  C           2.10768641257089     -0.04236071860998      0.29724337307079
  C          -1.43391896353084     -0.57395538808926      0.40523926699035
  C          -1.17714742444532      0.16056576813495      1.56872598879453
  C          -0.90428217581185      1.56404983507515      1.35587997552189
  O           0.47654404943931      1.56818094544453      0.69663037064410
  H          -1.33110961361463     -1.64987767226177      0.48184549215651
  H          -2.30201602415354     -0.28069402003272     -0.17009983309748
  H          -0.65888711277242     -0.31392490912051      2.39069489939096
  H          -0.73411398489003      2.16688489964628      2.24311254677720
  H          -1.57712588436444      2.06494244450466      0.65811100819483
  Cl          0.59249612351725     -2.52201119975998     -1.46784873388064
  Cl         -1.73168034300879     -1.31473365801423     -2.63264377387279
  Cl          0.86124495001826     -0.31247440565399     -3.34810330652742
  Br          3.12183809680464      1.20775943202931      1.37849294357057
  Br          1.72462812009255     -1.61692735751411      1.52303307106569
  Br          3.27482445987809     -0.65526947306350     -1.10377047390497
