20
Coordinates from ORCA-job NEB_product E -47.943068500530
  C           0.79869574812864     -0.46798870530538      0.98399395571647
  C           1.99602063717686      0.18042750023908      1.67415450607632
  C           1.22014709482561     -1.21153890635266     -0.28779720458605
  H           0.22411366480205      0.40029878455330      0.63469701496531
  C           3.00481889015018     -0.57088683736671      2.53796116513402
  C          -0.10857935056510     -1.32526935625484      1.87956991126246
  C          -0.25606570948778     -0.79953993196063      3.27995489777769
  C          -0.13114806476960      0.45674468474569      3.66721003576114
  O           2.21634843795074      1.34735877271112      1.50779139011193
  H           0.25349580463839     -2.35316479755760      1.91452344278099
  H          -1.09875966991780     -1.36053385650340      1.41542750678711
  H          -0.50987698264628     -1.55929231684810      4.00687734086809
  H          -0.26045580064573      0.73215041840649      4.69969150392769
  H           0.08874674078831      1.26939327166532      2.99610021122800
  Cl          2.08841847658234     -2.72264597383691      0.04559280047679
  Cl         -0.23727406040096     -1.61475027462809     -1.23310419647637
  Cl          2.26422632175782     -0.16718303380478     -1.29766193276325
  Br          4.55802282701811     -0.80104615735533      1.36237764292186
  Br          3.50574588505803      0.62763141671394      3.98467129903652
  Br          2.59625910955617     -2.26846470126052      3.32736870899329
