20
Coordinates from ORCA-job NEB_reactant E -47.933872098450
  C           1.43941535839630     -0.57676509666280      0.32398666391694
  C           2.03278589453741     -0.66941678921680      1.52411774278279
  C           1.96494463066257     -0.56039886473866     -1.06113975896743
  H           0.35969972688935     -0.54252334735587      0.33487389104029
  C           3.49930211507837     -0.73448783560472      1.85213313184055
  C          -1.72204932114360     -0.47149108570913      4.57399631634107
  C          -0.46934998847023     -0.51906535964798      4.16620597670201
  C          -0.05963554114229     -0.52172103018448      2.72048393018069
  O           1.34951691018669     -0.65843534333415      2.68083431297909
  H          -1.97094220658936     -0.46875877762422      5.61965957755037
  H          -2.54724307492410     -0.43206247509769      3.88208982461645
  H           0.35539011574035     -0.56048694454416      4.86212939293219
  H          -0.35488672863310      0.41893789579224      2.23393586603182
  H          -0.53415935412780     -1.35775088130386      2.18864154360906
  Cl          2.20853263188369     -2.24559563037694     -1.66136793561427
  Cl          0.72806217926920      0.18865441862745     -2.11799418688315
  Cl          3.46245724647048      0.35500036054770     -1.29908132187488
  Br          4.26034404604600      1.07286882493237      1.79660178268826
  Br          3.73782147023134     -1.36596753902717      3.67174137538202
  Br          4.53179388963872     -1.92883449947111      0.73895187474612
