16
Coordinates from ORCA-job NEB E -30.887496796340
  C          -0.68454885365356      0.90683757664096     -1.46009639424717
  C           0.06961767343001      1.50608367402410     -0.43045687209771
  C           0.04760952464256      0.07434426328259     -2.28927373063292
  H          -1.45265167360663      1.48110949575905     -1.95203355525450
  O           0.96375572606995      2.43824802769131     -0.62920278360558
  C           0.54104776312752     -1.92981141420729      0.57227426296405
  C          -0.00095820772031     -1.16977069643401      1.51284884168267
  C          -0.84590879449797      0.02137046554800      1.17366915833928
  O           0.00110485670731      1.13136494052074      0.83079202053169
  Br          1.63570826170379     -3.39777626519127      0.99233543449905
  H           0.41053482965042     -1.77580141380250     -0.48964139635438
  H           0.18155838300733     -1.36548654149174      2.55913541978135
  H          -1.44410117442043      0.34182155739484      2.02703611498278
  H          -1.46965230351014     -0.17041100386550      0.28370271068880
  N           0.58086679154438     -0.76970694010055     -2.87255722740687
  H           1.46601719752576      2.67758427423125      0.17146799612947
