16
Coordinates from ORCA-job NEB_product E -30.975376378920
  C           1.58471406668500     -1.03672346728102      0.79306822342855
  C           2.60163658268433      0.03581403324568      1.20117732000201
  C           1.86578621871130     -1.44681798430788     -0.56714944412818
  H           0.59524604285787     -0.55763749312739      0.80072872685839
  O           2.60387685495613      1.02652396183944      0.31257239162123
  C           1.55278581449238     -2.25515790065862      1.72691574842122
  C           1.13576674589618     -1.91463247504326      3.11612869918369
  C           0.09507817133012     -2.46993365318438      3.70939060324195
  O           3.28275110818338      0.01009730251906      2.18191839826927
  Br          3.34530607034856     -3.10029858027313      1.77657276413111
  H           0.89973921080867     -3.01978382314670      1.29713540727669
  H           1.76073725516792     -1.19481559188405      3.62437244110609
  H          -0.18046153232543     -2.21356903572137      4.71710273571459
  H          -0.52196786746712     -3.20299122095927      3.21460476309303
  N           2.08918605511826     -1.79758368081978     -1.62970426737082
  H           3.25981920255246      1.70390960880267      0.54326548915119
