23
Coordinates from ORCA-job NEB_product E -44.655916228100
  C           2.31417151431149      0.26677482274314      1.50543577631708
  C           1.05278742077088      0.66766239261907      0.79830275495363
  C           2.53136273281438     -1.21847517853702      1.11219862093872
  H           3.13984417054772      0.86278860112348      1.10801797756624
  F           1.32793827043855      1.04651041532043     -0.48436753734074
  C           2.13435517879096      0.56856219695801      3.00805373037673
  C           1.79028747637537      2.03212620565473      3.14996246012397
  C           0.63659046557524      2.47467934909154      3.60890362994197
  O          -0.06952038129614      0.63330932787400      1.15603059343095
  C           3.36390239274098      0.27791247341281      3.87208744526553
  H           1.30732594986125     -0.03468317890616      3.39603555556037
  H           2.56526663163200      2.71666240022626      2.83372193393595
  H           0.42514330402659      3.52719424619863      3.67925396986603
  H          -0.14624107774132      1.80465537664793      3.92108186659701
  C           3.97472380330948     -1.51566667281037      0.72758128299484
  H           1.89532674295538     -1.45493616105471      0.25450137395585
  H           2.21260428909241     -1.86036353442341      1.93188926545857
  H           4.26792251719186     -0.92266966184496     -0.13546699095468
  H           4.07562155194479     -2.56661790365938      0.46936878907163
  H           4.65436433483483     -1.29750943609685      1.54492031150017
  Cl          4.83285267571677      1.01279667828127      3.19742115007230
  Cl          3.10897194141875      0.97419384099194      5.50144427415027
  Cl          3.65459809468781     -1.45920659981040      4.10682176621762
