23
Coordinates from ORCA-job NEB_reactant E -44.636265909830
  C           2.10245292818228     -0.85943214547176      0.80849432650850
  C           1.62545716941264      0.22230403142930      1.40094604034975
  C           3.37729324570545     -0.88315793405312      0.02726047384298
  H           1.51678564628504     -1.76320550116850      0.85310129189447
  F           0.45893021703881      0.16271097398149      2.09559712899038
  C           1.89469440297687      1.40042528787790      4.82047377718861
  C           2.58088112986402      1.69048834802698      3.72680003103069
  C           1.95822766729122      2.28278166439122      2.49912689109864
  O           2.17682689254591      1.45034449471851      1.36571525499701
  C           2.44784358281203      0.77988552196501      6.05125198303330
  H           0.83583740160555      1.61126222650005      4.88784788985065
  H           3.63328514659977      1.45932737740301      3.64264259008205
  H           2.44785438753273      3.22533191759409      2.23997620502516
  H           0.88672642872239      2.45671510313284      2.64872791777454
  C           3.10730669326019     -1.09835536515496     -1.46179170339638
  H           4.00517075729623     -1.69745975434284      0.39772213187768
  H           3.90597786188644      0.05904913861843      0.17234288273807
  H           2.57733306258137     -2.03442763108750     -1.62158696571962
  H           4.04308542172493     -1.13169985161022     -2.01409914331205
  H           2.50037634789243     -0.28675907541062     -1.85499534352834
  Cl          4.17678334752416      0.42488814471835      5.95955504790038
  Cl          2.17749000289034      1.87999440796066      7.43726005904735
  Cl          1.57848025836919     -0.74921138001833      6.37713123272615
