17
Coordinates from ORCA-job NEB E -38.809065318940
  C           1.03932599651310     -0.63862952568667     -0.55398753354148
  C          -0.29237600159552     -1.04820584498994     -0.29696346719754
  F           2.00525016703709     -1.16375741278144      0.22761499285167
  H           1.38768497767639     -0.59927540201025     -1.58530006041778
  C          -1.30874993848503     -0.85621077754481     -1.40972784335048
  C           1.02357075231936      1.10856186285266      0.04596619350087
  C           0.61413090661046      0.95697634355276      1.38152495551837
  C          -0.68169057493527      0.43422943315587      1.62244295853813
  O          -0.72200138032638     -1.05268800564034      0.92473874899976
  F           2.28670959252724      1.52585504355407     -0.16439276115260
  H           0.36355370417415      1.57616140815128     -0.68315421163659
  H           1.39018082496439      0.82001958954287      2.12031127580056
  H          -1.50303912850749      0.90852604534468      1.09275342993933
  H          -0.92023714482318      0.20553590693870      2.65329809804990
  F          -1.62266911668743      0.46976740016729     -1.56242582667271
  F          -0.81405183911845     -1.25160958137175     -2.60084039911054
  H          -2.24559179734340     -1.39525648323497     -1.21185855011887
