17
Coordinates from ORCA-job NEB_product E -38.835972999030
  C           2.10571072974767      1.73948562458735     -0.29215800514852
  C           0.82473292804329      1.60000288638532     -1.09767950881172
  F           1.91826922894628      1.17608883487877      0.94064028899847
  H           2.94651804175312      1.22316031875819     -0.77071091665478
  C           0.99108157971927      1.61373605551765     -2.63688878033551
  C           2.45257613780668      3.24196854990929     -0.08329788431679
  C           3.65992802583371      3.37075157951114      0.79467388343306
  C           3.59281815151167      3.64586419322311      2.08262118556083
  O          -0.26216779696794      1.51504312569831     -0.60753503158063
  F           2.70220015987943      3.79043679489444     -1.31465927181056
  H           1.58100589188468      3.75813229958499      0.33905849941971
  H           4.59950530525581      3.20391036013819      0.28775127998308
  H           2.65179704655999      3.80417155831123      2.58216457375095
  H           4.47847426886731      3.71164692371671      2.68937771971319
  F           0.71406966426701      2.84471951970007     -3.11183396985640
  F           2.24975038440513      1.30863565123007     -3.01654947102821
  H           0.29773025248688      0.89904572395517     -3.10927459131619
