17
Coordinates from ORCA-job NEB_reactant E -42.331524242520
  C           1.63146528592817     -0.05892091246363     -0.25050511441486
  C           1.70081480652561     -0.95714692835295     -1.23307516472596
  F           2.03850663983802      1.21880249817828     -0.37176313378022
  H           1.24445489422051     -0.26782303064826      0.73140649384739
  C           1.22880359046329     -2.37537496447595     -1.03641355709990
  C           2.74937902157892      1.03846787299679     -5.32811933980537
  C           3.13298950639746      0.24600091446818     -4.34175623977136
  C           2.68210701785992      0.42645287927247     -2.92697642252446
  O           2.15994012921760     -0.82726399555309     -2.49537642325130
  Cl          3.29039863403240      0.83939709343116     -6.94118966979836
  H           2.08689567297519      1.88020324081956     -5.19218394668192
  H           3.78876671677299     -0.59312866406910     -4.51738830457251
  H           1.91632113020088      1.20588419001101     -2.85647496691688
  H           3.53687347589855      0.70583619416502     -2.29688032158851
  Cl          2.59996943381382     -3.47762652126292     -1.31981648732971
  Cl          0.58021276462168     -2.69658017010721      0.56915522246696
  Cl         -0.03919872034503     -2.72877969640938     -2.23774262405303
