17
Coordinates from ORCA-job NEB_product E -42.881675879610
  C           3.16362558115961      0.69803125220314     -0.91005705652756
  C           1.65992479159447      0.49668640096599     -0.95946762255697
  F           3.62747252126732      0.18699712674715      0.26657737432453
  H           3.64924724524851      0.13549807603452     -1.72020178127779
  C           1.02968002654810      0.85933861194458     -2.34221933314473
  C           3.50788221782902      2.19822059060958     -1.01313224379784
  C           2.96206918528802      2.96830466766199      0.14365653419664
  C           2.19240264263468      4.03153904408984      0.00459906217213
  O           0.97376471364818      0.12533342211431     -0.06079890335562
  Cl          5.30312775133295      2.34963411747612     -1.03544106762168
  H           3.15919489711798      2.59600271613596     -1.96825333271113
  H           3.25266461794363      2.59764227741103      1.11602987708853
  H           1.90263379547762      4.40409618426632     -0.96397057918267
  H           1.81844497811120      4.56679048150923      0.85913508569632
  F          -0.07732899171942      0.16715584458520     -2.57530158564340
  F           0.71492401111583      2.16305090432762     -2.38628623197102
  F           1.87427001540229      0.63337828191742     -3.35886819568773
