30
Coordinates from ORCA-job P E -34.010970914280
  C          -1.51771377091556      0.12619080450308     -2.29377234838884
  C          -0.05072390665691     -1.55581835585963     -0.30815770744443
  C          -1.42639716114437     -1.87625363999859     -0.80603235840446
  C          -2.08265899962133     -1.13285038240864     -1.68038574817434
  C          -0.38735774973676      0.66117112360176     -1.40615279741437
  C           0.61030516472692     -0.46237169519877     -1.14487407962521
  H          -1.87927586717445     -2.76981681732854     -0.39497604371236
  H          -3.07504341488723     -1.41847532682609     -2.00338027698040
  N          -2.50934167600098      1.15631648031837     -2.58264666268166
  H          -0.12615879067530     -1.23084703007599      0.73569042661273
  H          -1.05494742746084     -0.13731712587375     -3.25100485765586
  H           0.56126768088857     -2.46197370846771     -0.31516030734757
  H          -0.78205888762116      1.00231009758109     -0.44970586174861
  H           1.48854440893921     -0.07545949972832     -0.62403621542350
  H           0.09259034889927      1.50559388057452     -1.90196607655963
  H           0.94312666867667     -0.88242130541914     -2.09654206739649
  C          -3.43447691416065      0.91042995143628     -3.69601570068972
  C          -3.76233963031641      2.26134613763219     -4.34492619277142
  C          -2.89905644301373     -0.01504757788161     -4.78791863723629
  C          -3.22372090582682      1.58082793508153     -1.39290655048182
  H          -4.37311335764997      0.46578512861035     -3.31549856179148
  H          -2.85234603193503      2.69638049020356     -4.74926726691703
  H          -4.18131403997580      2.96053761831945     -3.62757315427469
  H          -4.48017673306459      2.12845598439734     -5.15073542814218
  H          -1.97491934230300      0.37711570853195     -5.20588312847947
  H          -3.63545288137314     -0.06874401259296     -5.58723937152133
  H          -2.72896991833484     -1.02478455926676     -4.42386966205211
  H          -2.54939244809489      2.13000319466863     -0.73828640466265
  H          -3.65184885687073      0.73818937086397     -0.82972354804528
  H          -4.03353911731616      2.25162713060246     -1.66753341058956
