30
Coordinates from ORCA-job R E -33.930332558950
  C          -1.26317834138375     -0.20342939897909     -2.72332537355005
  C           0.58066524688218     -2.34263721245280     -1.64672532366021
  C          -0.70716059853727     -2.48130967202408     -1.96196611202509
  C          -1.62539875270828     -1.46186710116432     -2.41086017758727
  C          -1.40087551159331      1.52261407576922      0.46361422641887
  C          -0.84773430586832      0.39652230373632      0.86311775000626
  H          -1.14786369633491     -3.46766506838154     -1.87134210183317
  H          -2.65474855218292     -1.77837274483152     -2.49006114525001
  N          -2.05737247664106      0.85340887841961     -3.06814307802205
  H           1.17055057016413     -3.18411450923305     -1.32722467712635
  H          -0.21543210022164      0.05726595719168     -2.66556578401660
  H           1.09465952601612     -1.39764731266197     -1.69147535967484
  H          -1.81049443275695      1.62670222459072     -0.52746504425145
  H          -0.78212929804969     -0.46290160522275      0.21660549690363
  H          -1.47026872762980      2.38807565651594      1.10313312561539
  H          -0.43379624424659      0.28344722155093      1.85224225123327
  C          -3.48768503378892      0.66656131798142     -3.24111800733560
  C          -4.26466684402099      1.95628532418661     -2.97912625759829
  C          -3.82672070786366      0.10141511826235     -4.62537793172174
  C          -1.44569101217238      1.99509260175125     -3.70336067433784
  H          -3.79092659216599     -0.05938920587087     -2.47949444571839
  H          -4.11506647310403      2.68064299514963     -3.77576206334379
  H          -3.96379533801986      2.39892069596253     -2.03248976842993
  H          -5.32617193718874      1.72806898695535     -2.92588181944188
  H          -3.59780222196090      0.82635330966890     -5.40327069269310
  H          -4.88486146949405     -0.13963911186022     -4.68257738050085
  H          -3.25119748769424     -0.80212175636607     -4.81152840179041
  H          -0.37439477489395      1.98404822961028     -3.51380414424131
  H          -1.85178375043261      2.92269813220695     -3.29693730225604
  H          -1.60037866210762      1.99300166953859     -4.78826978377118
