30
Coordinates from ORCA-job TS E -33.918050613870
  C           0.74806955404896     -0.29937974507287     -0.24356777686085
  C           2.34761985659537     -1.89449168596431      1.55456190334197
  C           1.30831061740113     -2.40531333046306      0.83026771255769
  C           0.50848684582047     -1.63257386295480     -0.02699801386136
  C           0.50749952109208      0.30969829838581      2.08231101535677
  C           1.27335545314548     -0.51696146918242      2.83755053096199
  H           0.94498852046214     -3.39562831000934      1.07327439347316
  H          -0.39623702591107     -2.08950924124909     -0.40090944885945
  N          -0.03781451405477      0.55775259058528     -0.95552346801174
  H           2.86988098443180     -2.52946583232449      2.25291147233894
  H           1.74409813116602      0.07696191377344     -0.07313601635862
  H           2.92435222211977     -1.06533315573530      1.18488546372203
  H          -0.54051229082536      0.11779220476760      1.93838298559430
  H           0.81403564520980     -1.32937886223321      3.37487919192605
  H           0.86935398867661      1.27368871913723      1.77007486695753
  H           2.21772117059317     -0.17637767541917      3.22796401335913
  C          -1.46324022176090      0.33475718735797     -1.11213208182067
  C          -2.29744135939270      1.51349951789039     -0.60372663109614
  C          -1.79985814209695      0.01354897931135     -2.57154554930849
  C           0.48184297656987      1.86144260406795     -1.28217576122832
  H          -1.71532044370784     -0.53516392006006     -0.49933354397623
  H          -2.18197152080164      2.38807382488215     -1.23852752490123
  H          -2.00668066766754      1.77409270190081      0.41118559885569
  H          -3.34822152360408      1.23483749268280     -0.59817771056125
  H          -1.59335425624473      0.86668204429291     -3.21348690058038
  H          -2.85209656575693     -0.24087701795353     -2.66743738861176
  H          -1.20286202472510     -0.82806583165542     -2.91375707864969
  H           1.55416490247301      1.79394364662771     -1.46072346602208
  H           0.30992895461842      2.59328421532203     -0.48320093704264
  H           0.01190121212552      2.22846399929165     -2.19388985069435
