17
Coordinates from ORCA-job NEB_product E -29.865057370990
  C           1.69828374180209     -0.69683795500502      2.00785234236753
  C           1.14570104622331      0.47949493554787      1.24090956856708
  N           1.41950092393216     -1.93992459371582      1.34264044152113
  H           2.78377441873236     -0.58306783211135      2.11271252944035
  Br          1.80694059540724      2.21609422237588      1.89764661668125
  C           1.12381794614353     -0.69883347221090      3.45557030453440
  C          -0.32877603484145     -1.08697380317627      3.44444168532509
  C          -1.31915059904143     -0.21497294427604      3.42636326935177
  O           0.40300237661970      0.46509953304905      0.32296285223009
  O           1.92452055110561     -1.59078801493533      4.19046151264779
  H           1.23133936898079      0.31961376385609      3.86524409942565
  H          -0.51131029051421     -2.15290576265748      3.44413356302784
  H          -1.14167138855276      0.84860711565224      3.43091362752562
  H          -2.34914762964720     -0.52563373379141      3.40508252158871
  H           1.91582457133547     -2.00993678041510      0.46284202027522
  H           0.42726059999556     -2.04833096204565      1.16562327070033
  H           1.47518980231925     -1.81030371614076      5.01349977479015
