19
Coordinates from ORCA-job NEB_product E -40.855124129890
  C           3.30667520403925      0.76653807874012      1.46040651029296
  C           1.86814830344839      0.84326412498642      1.08903285932366
  H           3.84379854142176      0.23639964457033      0.67159436807006
  H           3.70353702889404      1.77790938806392      1.57288884923241
  N           1.07009619216879      1.81093054134547      2.00623015013488
  C           3.46361267231895      0.00762998776762      2.79806578668152
  C           2.81015064436477     -1.34592423219778      2.72557775203251
  C           1.82885305662103     -1.72397048065856      3.52086604027575
  O           1.25766425032259      0.28597831841814      0.24497995960799
  C           4.95975738139380     -0.13932191471645      3.10316702264743
  H           3.03136570735811      0.59326801559894      3.61529636673015
  H           3.20796494426518     -2.00851649404168      1.96991642658458
  H           1.42925762285763     -1.07573424804670      4.28395521601497
  H           1.38606791894250     -2.70089269437541      3.44423646076668
  O          -0.12022509663000      1.79955249507355      1.86267097545102
  O           1.70897588623708      2.48217049929053      2.78223914211745
  F           5.14106177297948     -0.78549432191935      4.27420309555281
  F           5.58122680201533     -0.87858419792157      2.15392144696355
  H           5.48261116698132      0.82849749002245      3.16665157151963
