23
Coordinates from ORCA-job NEB E -44.941960355710
  C          -0.11259955170629      1.15395914638780     -0.06298143007200
  C          -1.52242396827442      0.76188849608355     -0.27789756059226
  Cl          0.73869247068312      1.17431107119476     -1.68623782663899
  H          -0.04005136232145      2.18454711554898      0.28419174944897
  C          -2.52687066792591      1.81692631954622     -0.64256098553167
  C           0.51051047928763      0.17084091091204      0.93112878341328
  C          -0.35381047161983     -1.03382552277332      0.90757242658719
  C          -1.09365841055001     -1.46109451420218     -0.29709603887476
  O          -1.84242859349629     -0.43230020937182     -0.85769552354411
  C           2.02690730202135     -0.13413229283950      0.78589410797399
  H           0.40351490969979      0.64793114220735      1.91389752914558
  H          -0.09029107596546     -1.82286899383360      1.59780232315187
  H          -1.79534515705256     -2.27357288632555     -0.08193530927486
  H          -0.37747316208360     -1.83764690598163     -1.04619798081483
  F          -3.13128683943791      1.60420786934080     -1.81953129169053
  F          -3.52345573620262      1.88720031299275      0.27146492045084
  F          -2.00250488917316      3.05288577473774     -0.68998632645155
  C           2.37615003127191     -1.25173373066711     -0.18959025846724
  H           2.40778295090297     -0.40505166343387      1.77207169963804
  H           2.52010378834142      0.78793252678630      0.47693283882254
  H           1.96180109703914     -2.20101058263463      0.14224870594778
  H           3.45730215198625     -1.35519987279513     -0.24383359440242
  H           2.00943470457591     -1.03419351087995     -1.18766095822487
