23
Coordinates from ORCA-job NEB_product E -44.995624573240
  C           3.19652948881107     -0.09144301901302      1.80225760101143
  C           1.72637059976635      0.09064714205796      1.55016404542533
  Cl          3.93879551545283     -0.62327629292043      0.26712338498308
  H           3.67085560321530      0.85193259284744      2.08360767153762
  C           1.14270225380426      1.34135600106657      2.28284711190117
  C           3.34739188767939     -1.12932033290548      2.94756045636662
  C           3.04892916621956     -2.51361186750293      2.45303908262154
  C           1.98017914601307     -3.19925039555537      2.81116938194202
  O           1.01625547069124     -0.61438213562761      0.90101218696521
  C           4.71343863436440     -1.02236261532911      3.64761695696045
  H           2.59195256599002     -0.86685734111175      3.69912173540876
  H           3.76396232141501     -2.93297089975414      1.76215384915699
  H           1.24562558217599     -2.80009743992847      3.49210763763205
  H           1.79369622117010     -4.19139780533580      2.43926395582720
  F          -0.17596202524248      1.43156503635724      2.16613497885185
  F           1.43320086387087      1.32351636909200      3.59520425264644
  F           1.67881888595237      2.46700820245643      1.78844903439387
  C           5.93285572598133     -1.25833241742711      2.76639778980917
  H           4.70998377099109     -1.75646579999464      4.45652869867083
  H           4.78668906813302     -0.03208942496656      4.10345353610604
  H           5.89428380166904     -2.23531016452195      2.29410390973470
  H           6.83049755032117     -1.21529154761367      3.37901637867676
  H           6.01514790155501     -0.50196584436959      1.99196636337090
