20
Coordinates from ORCA-job NEB E -53.918240999670
  C           0.51958501875757      0.83546764669331     -0.09326409064557
  C          -0.75998972638026      0.60118154333162      0.45496746893556
  C           0.58865612574100      1.36978803687251     -1.50371699600643
  H           1.21793694395627      1.38310358394215      0.53392792442383
  C          -0.94265455805102      0.84929262016572      1.94726395323763
  C           1.26074279017848     -0.96372366722938     -0.32509058150059
  C           0.22435647319502     -1.86004604623093     -0.02823207546379
  C          -1.00457773586804     -1.66845684094692     -0.69260706044674
  O          -1.58853382010914     -0.18007706232233     -0.11515726399678
  Cl          2.67869833880248     -1.01311464666150      0.67565593497001
  H           1.52712766251490     -0.82775865951481     -1.36758195278972
  H           0.21117461418530     -2.30814213976657      0.95561420461149
  H          -1.82691854207985     -2.31337890251502     -0.41197737455005
  H          -0.97646133697886     -1.43831750083655     -1.75099947493760
  F           1.85030684773145      1.43859406628303     -1.95177091219064
  F          -0.09393727489742      0.66397391493157     -2.41119442934332
  F           0.10528844531318      2.61937547924991     -1.55143082541480
  Cl          0.09236942157857     -0.28404275872202      2.87129454098630
  Cl         -0.45917041724865      2.50615330049586      2.35586819494728
  Cl         -2.62399927034099      0.59012803278033      2.40843081517392
