20
Coordinates from ORCA-job NEB_product E -53.960130329280
  C           2.53074356099322     -1.55800110364257      0.63342201070951
  C           1.29253007034683     -1.62213741559616      1.52202918937051
  C           2.21724127540686     -0.83306047475817     -0.68105494497419
  H           3.32678338175658     -0.99167918501891      1.12512644718786
  C           1.41223728466318     -0.90901881219861      2.88054403831974
  C           3.02339031570166     -2.99149799710139      0.33272478284630
  C           2.11416374175727     -3.77802703760911     -0.54965592583594
  C           2.52695842161558     -4.35840454413108     -1.66178908342346
  O           0.26901131635454     -2.13881243417561      1.19775564292929
  Cl          3.16636935986023     -3.84411716134901      1.91807640153696
  H           4.03233143180077     -2.94780588938448     -0.08602067832154
  H           1.09045601516752     -3.86052090301846     -0.21580479853122
  H           1.85422722916643     -4.92805746509455     -2.27745205788849
  H           3.54663113156219     -4.28195579161987     -2.00232551073493
  F           3.24020407560967     -0.94867612311613     -1.54123442682661
  F           1.13301719032959     -1.27743059655337     -1.30818009937871
  F           2.04138061316516      0.47828753363630     -0.48067607181808
  Cl          2.99257254301854     -1.05696629666109      3.65200774259154
  Cl          1.11719991625144      0.80951788776050      2.46013843092878
  Cl          0.15835112547274     -1.48333619036823      3.97796891131269
