20
Coordinates from ORCA-job NEB_reactant E -53.955270633740
  C           1.65368217125973     -0.12326782655992      0.10375172293231
  C           1.59183159395310     -1.08736792798222      1.03203237075076
  C           1.97913237327868     -0.21090466884056     -1.34846549193327
  H           1.43112508080184      0.88776184012161      0.40413619661663
  C           1.26268329187557     -0.71986400890107      2.47379120113480
  C           3.75486286573685     -5.06983987763941      0.12077097169673
  C           2.57506884185354     -4.48880966869128      0.26236947484668
  C           2.30774908395151     -3.07815101810634     -0.16121762845839
  O           1.81939232618251     -2.39428652469720      0.99552462331518
  Cl          4.05291516521742     -6.68837094005895      0.58879082724049
  H           4.60982938574308     -4.57802503989601     -0.31922437817697
  H           1.74339897891181     -5.00691100095601      0.71467836588876
  H           1.54095225351873     -3.06786141514570     -0.94428587089089
  H           3.22385735091293     -2.60796413876010     -0.52690287094143
  F           3.24909133540600     -0.58985729234958     -1.60837225551547
  F           1.19754408048322     -1.06456314761617     -2.03930936441979
  F           1.82759005087472      0.98261212039560     -1.92972789037012
  Cl          2.81129386375946     -0.69067534214654      3.36326727174388
  Cl          0.47432997565421      0.84460685449189      2.65920433706765
  Cl          0.21436993062507     -1.95866097666206      3.18638838747246
