17
Coordinates from ORCA-job NEB E -42.870166986120
  C          -0.02119845592484     -0.82187058402322      1.22713033027127
  C          -1.17234529911514     -0.07068290871957      1.50554115281422
  F           1.13655536544294     -0.36853302791937      1.73579386655200
  H          -0.05512211057707     -1.90779756794870      1.25286034702923
  Cl         -2.68283777621173     -0.91135812507810      1.16617247444434
  C           0.18360904980438     -0.29410433181158     -0.64577596844250
  C           0.20349640439462      1.09752635396147     -0.56245276311323
  C          -0.97544991935028      1.74552557319610     -0.09152656269761
  O          -1.16841976158426      1.19956700440196      1.42335069617174
  C           1.43024242866129     -0.99783534820196     -1.12851199941821
  H          -0.71040040160293     -0.78951220341603     -1.01613806627417
  H           1.15557068418468      1.59363132243985     -0.44358565316447
  H          -1.91423457186266      1.42982049655212     -0.54116254475686
  H          -0.91434848305303      2.81595459110997      0.05820954299203
  F           2.56311561569532     -0.43418391926325     -0.71171120689435
  F           1.46650994477698     -2.28556032339074     -0.75448679551753
  F           1.47525728632175     -1.00058700188895     -2.47370684999590
