17
Coordinates from ORCA-job NEB_reactant E -42.896406606940
  C           2.25534547786138     -0.80955059002645     -0.84426968142553
  C           1.21891274443791     -0.56518595144978     -1.64173717815197
  F           3.39793056712202     -0.08760919935716     -0.86151883291309
  H           2.27395614026163     -1.60627602442688     -0.12187974807663
  Cl         -0.16242319792322     -1.58319799119520     -1.49563223609401
  C           3.19448541017987     -0.58364125582165     -4.14035404816467
  C           3.19851024606199      0.64376844623458     -3.64749069264714
  C           2.05287116366629      1.26636763070819     -2.91444094273204
  O           1.00717597432445      0.36782771767605     -2.58889150289295
  C           4.36344213418826     -1.17229052025731     -4.86243203800225
  H           2.35227101286170     -1.25471887439130     -4.06290954750146
  H           4.06455162803200      1.28119979976304     -3.75554539268638
  H           1.57823443079998      2.01415994347556     -3.55906631242684
  H           2.42421125809788      1.77534521560684     -2.01736413780398
  F           5.39535186887165     -0.32849713641590     -4.98891426257270
  F           4.83494294572139     -2.26698921013220     -4.24029515663884
  F           4.03443019543480     -1.56361199999044     -6.10665828926951
