17
Coordinates from ORCA-job NEB_product E -42.913425921160
  C           2.82502521759363     -1.25964189927971     -1.93598786020088
  C           1.56527996018853     -0.78422529109577     -1.23583638381495
  F           3.90001893915857     -0.90025894346538     -1.17341789803911
  H           2.82577513203889     -2.35676768866157     -2.00227338416017
  Cl          0.13072219626463     -1.41200703559803     -2.04281757191371
  C           2.92468758763669     -0.62345535497440     -3.33765630213900
  C           3.03918816864034      0.87579458633801     -3.24748566183064
  C           2.19429310001667      1.70121718745723     -3.83275362494042
  O           1.48432157115757     -0.09232051748232     -0.28597911954126
  C           4.13216398493720     -1.19132121476786     -4.09062416170335
  H           2.03934082103402     -0.91267775789176     -3.91328859939000
  H           3.87236295279844      1.23364759121239     -2.65979889354016
  H           1.36297532096927      1.34858218163348     -4.42094414073891
  H           2.30533708715947      2.76727365632064     -3.74744356613786
  F           5.30581697023105     -0.82852297249178     -3.57971357858284
  F           4.11255151134466     -2.53484015871373     -4.11353798216430
  F           4.12143947883035     -0.79057636853945     -5.36884127116244
