20
Coordinates from ORCA-job NEB_reactant E -39.867724849450
  C           2.78374813926044      0.60387304741877     -1.33267414288315
  C           1.54148191488046      1.01470323829230     -1.60111194886233
  Cl          3.95522856347266      1.38612367139408     -0.35113494282684
  H           3.15018208597113     -0.31666115503877     -1.76109268990396
  C           0.69730611863630      0.16105215999092     -2.51103005956473
  C           2.58283290946751      3.77335208788244     -2.79267398831634
  C           2.52933775202504      3.86316926034038     -1.47418480821307
  C           1.48300914863769      3.21455441925559     -0.61456059770296
  O           0.84536536340629      2.10301652156272     -1.22878103993889
  C           3.63017269796412      4.40313599075802     -3.64241037174163
  H           1.83235931634039      3.21115226755487     -3.33391873187563
  H           3.26559483900074      4.43513968344338     -0.92792773292029
  H           0.65471216387380      3.90878201171860     -0.43111909899908
  H           1.90364626856747      2.92038981066209      0.35236299508434
  Br          0.72306674271921     -1.71589616197526     -2.00668110347450
  Br         -1.13487547632652      0.75191232418326     -2.50850938117674
  Br          1.36881800214217      0.29147374768103     -4.35267554850201
  H           4.15721590028403      3.63820146186504     -4.21199719744120
  H           4.34675620409824      4.95368201343039     -3.03855277764206
  H           3.16924134557884      5.08344359958017     -4.35732683309894
