18
Coordinates from ORCA-job NEB E -37.117221347980
  C           0.58554828474458      0.86483201110714     -0.96829620118208
  C           0.62596932430847      1.15180373502816      0.39956434445633
  C           1.17329772032097     -0.04525631722258     -1.72789568964195
  H          -0.14296499780242      1.62749128329867     -1.59874238601258
  C           1.51506779567219      2.13411120124674      0.91989526016858
  C          -0.12956940159455     -2.28771993414387      1.08568921273793
  C          -1.18625607322939     -1.55181924916427      0.80438602480620
  C          -1.35233569872490     -0.06244112569496      0.91669464967793
  O          -0.22363420741660      0.70801942277719      1.30303457060171
  H          -0.14635640265995     -3.34736031215492      0.96570693166980
  H           0.79387732983337     -1.87853253618517      1.44101870859717
  H          -2.09762307638632     -2.00270220756241      0.45678225990138
  H          -2.09272668878627      0.14035771432558      1.69830169400152
  H          -1.73719367625494      0.32160681855898     -0.03724400198897
  Br         -1.10208198811460      2.87285938859907     -2.59148567348067
  Br          2.53194072362748     -1.21316155031696     -1.07016697607658
  Br          0.81151320304482     -0.23238400950768     -3.57435331253681
  N           2.17352782941806      2.80029566701128      1.57711058430105
