18
Coordinates from ORCA-job NEB_product E -37.165020678320
  C           1.15946624056935     -1.28932270892133      0.86655834010135
  C           2.15494620062786     -0.50780707869369      1.71760618568010
  C           1.71752977995173     -1.53435206703962     -0.52399182717794
  H           0.25193698186034     -0.67689045014508      0.76785704827468
  C           1.53490796842090     -0.03209020528719      2.94500041130318
  C           0.78395177747673     -2.58761595636432      1.62285737177486
  C          -0.61961843448260     -3.04751402906330      1.32672015914862
  C          -1.69236299732930     -2.35494776583486      1.66093787852453
  O           3.30256902940553     -0.30511387540209      1.43776198843554
  H           1.50390238396793     -3.37122728169972      1.37951500334663
  H           0.86491130648708     -2.39196379433593      2.69711165938881
  H          -0.71560409281539     -3.99749093314517      0.82277878243679
  H          -1.62874040975835     -1.40864785156394      2.17582097861952
  H          -2.68296182933056     -2.70853510229245      1.43881871193205
  Br          2.10413837710461      0.17837157274566     -1.40225671968225
  Br          3.34640724329872     -2.59863013058467     -0.49963276290655
  Br          0.40772428171828     -2.46623414747770     -1.63644270694564
  N           1.02799619282716      0.35151180510540      3.89567949774570
