18
Coordinates from ORCA-job NEB_reactant E -37.166383890860
  C           1.52576227146712      0.10176872449012     -0.07230960505769
  C           0.89822500984781     -0.40932245846007      1.00955542194382
  C           1.92273331276718     -0.78333509178086     -1.17834882441134
  H           1.74468293694351      1.15475671628766     -0.13761159302015
  C           0.52153862656304      0.46025681284976      2.07155929389775
  C           0.06972493122116     -4.63484824470890      2.86540551927673
  C          -0.23671007401182     -3.70306108386748      1.98475802067347
  C          -0.02999625533409     -2.23804338338204      2.21363583131559
  O           0.63886751889807     -1.72059932978254      1.06706670564894
  H          -0.10525149783602     -5.67712390896073      2.66611920287554
  H           0.49637505582059     -4.39370595288092      3.82517329742692
  H          -0.65662390204462     -3.94925593589154      1.02004372377769
  H           0.57062909156195     -2.05815254259961      3.11356643502220
  H          -0.99929137370545     -1.73119253255177      2.32967106939130
  Br          2.78048507866171      0.20437160804294     -2.61408956641117
  Br          3.17648920610083     -2.18350827613213     -0.55820699129718
  Br          0.36311509361479     -1.72731018947196     -1.93461175991904
  N           0.21574496946423      1.15730506880007      2.92692381886663
