22
Coordinates from ORCA-job NEB_product E -33.696808480520
  C           2.24623889607116     -1.60301856501362     -0.88116048603440
  C           1.38095128271392     -2.02580930337258      0.31928804586999
  O           2.40659513550086     -0.21811607381069     -1.01793934400880
  H           3.26091582706144     -1.94541827454472     -0.61703989762122
  C           1.20568891564883     -0.98499486174925      1.38609364024497
  C           1.82871792735357     -2.40058381081452     -2.15874831810602
  C           0.42332835814696     -2.14644498130926     -2.64654341234860
  C          -0.62267338051650     -2.83763643522494     -2.23347785952403
  O           0.93923745153185     -3.14321887133546      0.40273893842019
  C           2.76801049754350     -2.11884047423521     -3.21746051673432
  H           1.91655575159380     -3.45738209863632     -1.87775060794051
  H           0.31162821437915     -1.37149065121155     -3.39296848213954
  H          -0.53523476482839     -3.62114476155250     -1.49968654406782
  H          -1.61182375718634     -2.63101489334240     -2.60551463566762
  C           1.31963299967441      0.52318999951110     -1.53082217887512
  H           1.33480320554804      0.52963387352714     -2.62499993399826
  H           1.45736669597361      1.54371099253690     -1.17429244458560
  H           0.35603877066621      0.14245317174666     -1.18293489612022
  H           1.09344084679274     -1.46961874578105      2.35269393521712
  H           0.29432282859219     -0.42301019549484      1.18404415802623
  H           2.04221549790374     -0.29235633470233      1.39047330254758
  N           3.48994279983522     -1.86888870519057     -4.06749246255400
