22
Coordinates from ORCA-job NEB_reactant E -33.694882984930
  C           0.87483642793562     -0.41217617117134     -0.27211645590117
  C           0.88186592686272     -1.45773042559623      0.55344169398209
  O           0.46988344098855     -0.41559215648212     -1.59207111961060
  H           1.18511943567256      0.55360121884167      0.10865514813048
  C           1.25807620313790     -1.30949873472169      1.99891623380120
  C           1.57201067400050     -2.84562364329940     -3.19455836945265
  C           1.56678578347486     -3.06058432828752     -1.88038771068575
  C           0.32546238295730     -3.14761573252263     -1.05108231080346
  O           0.53923917584569     -2.75958762337219      0.28658582387369
  C           2.76254894547185     -2.76033385505497     -3.93827447993300
  H           0.65534441347669     -2.70999380780129     -3.75321124176646
  H           2.49659654100097     -3.18081035557950     -1.33882639356745
  H           0.01034817315790     -4.19698476931519     -0.97943624078101
  H          -0.48381413870366     -2.56543014804191     -1.50665017673818
  C           1.12324529536137      0.53309328406764     -2.39917351090084
  H           0.60938735341263      0.53034464181091     -3.35893591474571
  H           2.17653984407012      0.27098079431956     -2.55180306712859
  H           1.06561836068639      1.53467471915747     -1.95872358963045
  H           2.09972250640170     -1.96050415398200      2.22829226729016
  H           0.42322885887558     -1.61481318025170      2.62686860571494
  H           1.52332866567474     -0.28338172886224      2.22839446936587
  N           3.72942573023802     -2.68283384385531     -4.55100366051312
