15
Coordinates from ORCA-job NEB_product E -26.899760994890
  C           0.72088217678814     -1.55677892837105      1.52442427668811
  C           1.82073370003087     -0.62101459504681      1.88588962642937
  H           1.07842776281063     -2.57826979559595      1.69391729059856
  H           0.50787684778315     -1.46762232995668      0.45534225578480
  Br          3.36150521850527     -0.84257528073569      0.66706817627768
  C          -0.54161134168175     -1.27128265004639      2.35944659342200
  C          -1.17787397092881      0.03599468540442      1.95698549333678
  C          -1.37431063765584      1.03875486359983      2.78949045901405
  O           1.88965294056352      0.16941545913309      2.75685766599758
  C          -1.49766379060697     -2.33890275313712      2.15558666323024
  H          -0.27840084633421     -1.24211458060572      3.42351152172140
  H          -1.47408793960715      0.10038936936806      0.91834412555214
  H          -1.08409196117943      0.98670478433553      3.82575661494416
  H          -1.82670229344235      1.95974485363128      2.46561859170927
  N          -2.25823586504508     -3.17144310197680      1.97436064529387
