15
Coordinates from ORCA-job NEB_reactant E -26.876985589580
  C           0.83230382955792     -0.22014218709122      0.27281887471563
  C           1.72643413357190     -0.05676175216275      1.23207056688406
  H           1.14297320396142     -0.32744560904442     -0.74830927974077
  H          -0.22290758371527     -0.26463538106554      0.47250511109552
  Br          3.59004162113312     -0.00873755465200      0.85786954416187
  C          -1.81762863254802     -1.19915367785480      2.88531289341362
  C          -0.49355246173511     -1.10734803749537      2.99257336470777
  C           0.24729557725387      0.19095259126831      3.06381354279976
  O           1.56542733610105      0.10705902078727      2.55935810748951
  C          -2.48764970693512     -2.43827822727902      2.85640464479747
  H          -2.45113431387266     -0.32327146651926      2.81877561008692
  H           0.11790851062010     -1.99760231784282      3.05867788206169
  H           0.38463035072356      0.47099780616128      4.11545214610926
  H          -0.30660880485300      0.99320925827370      2.55754036592385
  N          -3.04313305926377     -3.44024246548336      2.82533662549384
