19
Coordinates from ORCA-job NEB_product E -30.573298618100
  C           3.28113512970707      1.54646998302340      0.91866838164529
  C           2.18591035923268      2.02351107585484     -0.02514434543510
  C           3.38288500494473      0.10831681920238      0.91775772420233
  H           4.23258827583622      1.97289082103884      0.58048213160073
  O           1.17285770972516      1.16475937127032     -0.09878205338021
  C           2.96872713197960      2.08906594111523      2.34391287543720
  C           1.66978778235027      1.52440543212306      2.83794089867624
  C           0.61315006066858      2.25639910152524      3.13408868392285
  O           2.21587741797146      3.07176292604938     -0.60655022669496
  C           4.10792664675681      1.72993394297126      3.29781901649540
  H           2.88865474495672      3.17869800320449      2.26502972722196
  H           1.64656098545648      0.44785296162773      2.94224863603445
  H           0.61861382543797      3.32996207291578      3.03121831657641
  H          -0.30079892335320      1.81669264980129      3.49403153446794
  N           3.48443879149252     -1.02977068582002      0.91618056915612
  H           0.46936786018187      1.50173538946937     -0.67650777890496
  H           5.04773575947035      2.15880956948346      2.95651085278425
  H           4.22240174561442      0.65007093313712      3.36649527248409
  H           3.89067969157028      2.11873369200683      4.28989978370998
