18
Coordinates from ORCA-job NEB_product E -42.826359616040
  C           1.38791448217028      0.67775562646112      1.55488375876770
  C           1.78008058356234      1.99248174490832      0.90133274871896
  C           2.35961890133859     -0.42899161829925      1.11945029190509
  H           0.39165762312136      0.40807245064748      1.18136000346799
  F           1.75360565042185      1.90298694231295     -0.44362833979777
  C           1.29048610084592      0.87902019786856      3.08787230979227
  C           0.32546433310775     -0.09235813464201      3.73832670688414
  C          -0.96319789582297     -0.12095544616643      3.45842967020112
  O           2.03487321502963      3.01698675668174      1.42119524611266
  C           2.57897859751947      0.80545751845761      3.74559077231663
  H           0.91963554456109      1.90178191192860      3.24634703252772
  H           0.74953890772217     -0.76250057557083      4.47080638168406
  H          -1.41695360941777      0.54766348270420      2.74406170923820
  H          -1.62439869742215     -0.81862949137435      3.94008781967690
  Cl          2.28476824790354     -1.82266594868837      2.21437995300164
  Cl          1.94403641631936     -1.00764891946584     -0.51503069290853
  Cl          4.03525895002001      0.19676403242662      1.09505920035955
  N           3.55603264901953      0.74387946980989      4.33267542805168
