18
Coordinates from ORCA-job NEB_reactant E -42.812531493500
  C           2.02015367689283      0.11052845764056      0.40805571621080
  C           1.39864988943114      1.26908567131547      0.64712377543466
  C           1.57402871869311     -1.25856717481051      0.74121381379431
  H           2.96023223719901      0.17897699982809     -0.11777756587242
  F           1.98793092620049      2.36788096720145      0.13784861433810
  C           1.20387917897506      0.75564595667674      4.66152391910002
  C           0.97339352540188      1.47187258231307      3.56348925965326
  C          -0.05686719965836      1.11170394617208      2.54232754514922
  O           0.27227868765491      1.61782329398306      1.24811353872513
  C           2.16516147598253      1.13379829271045      5.61949641815979
  H           0.66082433980097     -0.15486354841825      4.87804932110915
  H           1.53027064136006      2.37937342333710      3.36952510518090
  H          -1.00316294081327      1.61431373326686      2.77354742141403
  H          -0.23348657126413      0.03258522451381      2.51816315053461
  Cl          1.91841457807426     -1.67130641339815      2.46389952636694
  Cl         -0.17145122569245     -1.49573631319020      0.45163877054911
  Cl          2.45164983645201     -2.43566393284356     -0.26154413216767
  N           2.94770022530994      1.42694883370193      6.40380580232005
