21
Coordinates from ORCA-job NEB E -40.961654623300
  C           0.52128470874414      0.19055241278014      1.22038694933766
  C          -0.54119016402190     -0.61976696176846      0.76223463338466
  C           0.20665513785697      1.45411946603238      1.77803472121582
  H           1.36089999989248     -0.31822070487154      1.68255418840472
  O          -0.31366733493741     -1.94692526335997      0.80082118898010
  C           1.16043898746980      0.76568604588956     -0.60923587773275
  C           0.02424944638059      1.34210057254934     -1.16450887758989
  C          -1.08593957587107      0.50470162421954     -1.40379085356236
  O          -1.52980380102778     -0.13388815845267      0.11870275960661
  N           2.28714592639313      1.61643644780694     -0.26231707877106
  H           1.49749202852369     -0.22397958713159     -0.89947662492507
  H          -0.12757649090285      2.39922254326763     -1.00101766199492
  H          -0.90124667249138     -0.43673998716390     -1.90981808080341
  H          -2.01237744836549      0.97750555474792     -1.69799036022014
  N          -0.05303015987984      2.46875424295366      2.23873670229891
  C          -1.30314812455317     -2.80284617970289      0.25001967486074
  H          -1.21896848874914     -3.74813800104011      0.78168896534629
  H          -1.11692367409834     -2.96324294664799     -0.81460499825579
  H          -2.29939466239161     -2.37800012656211      0.38407684501927
  O           2.13410041514574      2.81072025027571     -0.28840932894059
  O           3.31099994688347      1.04194875617841      0.03391311434119
