21
Coordinates from ORCA-job NEB_reactant E -40.997847916920
  C           1.74648982764874      0.13596705303092     -0.40830714791361
  C           1.56421104785559     -0.96134239151352     -1.17491815876410
  C           1.97765930589443      1.44343814583302     -0.82918669508009
  H           1.69219144030091     -0.00650496527458      0.66060502023959
  O           1.32261341319034     -2.12121479057548     -0.54912818781393
  C           3.93494038843997      1.52625130059830     -3.51664200419405
  C           3.39210102524162      0.34872214348501     -3.23981620194125
  C           1.93450583727413      0.03301449825909     -3.32230772640874
  O           1.57599636023180     -1.07342041264677     -2.52103244760064
  N           5.35826777924373      1.70865845511704     -3.44387195514505
  H           3.39390068576897      2.41683129543409     -3.79417560894366
  H           4.04269265680510     -0.46974642582764     -2.95142870981112
  H           1.69877049580013     -0.29197147096165     -4.34331514422936
  H           1.32331173358098      0.90986287888656     -3.08513800698589
  N           2.16756386093928      2.53854385968194     -1.12669278989182
  C           1.13695009573467     -3.28581472532397     -1.33441973081212
  H           0.96433693281538     -4.08807614338114     -0.62069877382615
  H           2.02408922025824     -3.50353831753375     -1.93313074002538
  H           0.27401422119710     -3.18133834552126     -1.99557165802889
  O           6.03745573880809      0.76870560938021     -3.09211995953920
  O           5.78193793297078      2.79847274885357     -3.75130337328452
