21
Coordinates from ORCA-job NEB_product E -41.016572124440
  C           3.17543309551484     -0.25388339090698     -1.60086480203363
  C           2.25761606923565     -1.41375629374850     -2.01866866913412
  C           2.59883912529432      0.43728567195538     -0.47001570083354
  H           4.13404333358203     -0.69127866072129     -1.28037735014064
  O           1.87222599254771     -2.10549953351211     -0.95980715835394
  C           3.43085410426517      0.68099655072162     -2.79423155852953
  C           2.39017890507932      1.74878520424426     -2.95201055570904
  C           1.49200182822630      1.73677347483382     -3.91790760617964
  O           1.95909068539053     -1.65032172368914     -3.15586519015662
  N           4.79073456186704      1.29980275142507     -2.67868296132979
  H           3.45916809455362      0.05633745163334     -3.69871532665149
  H           2.40853936379930      2.53191521400498     -2.20712086261772
  H           1.46447306297632      0.95470522987332     -4.65871175297692
  H           0.74238371260521      2.50372993939012     -3.99685026410733
  N           2.13474573813314      0.99329765901788      0.41229927873862
  C           1.01551288021655     -3.21797953742713     -1.20155204117782
  H           0.77856071887755     -3.63087095114884     -0.22517190043417
  H           1.52532883336873     -3.95846218333846     -1.82033725288427
  H           0.10864776106139     -2.89069198635690     -1.71248329825315
  O           5.65189985873440      0.64685565216568     -2.14105666884476
  O           4.93182227467084      2.39105946158386     -3.16136835839048
