19
Coordinates from ORCA-job NEB_product E -42.744572826040
  C           2.86830412751339      0.54561093240024     -0.57858909864708
  C           1.38647272282263      0.55327297915714     -0.86428908950104
  O           3.08016488940019      0.14822858576506      0.73750489149320
  H           3.35908291833808     -0.15208905553810     -1.28004548058877
  C           1.04033672040858      0.73750190885583     -2.37775180568506
  C           3.46444322504031      1.96252310802461     -0.83186729279345
  C           2.70829199638081      2.99130692561817     -0.03852517788459
  C           2.16361155439939      4.06918434964021     -0.56886174767155
  O           0.50588576681568      0.44876260233800     -0.06850546697488
  O           4.81089712214639      1.85324619966486     -0.40221844783061
  H           3.42761972165356      2.19348657597979     -1.90587485495096
  H           2.64895789366956      2.78619329891096      1.02124624616123
  H           2.21443099829063      4.27288563042237     -1.62582262648768
  H           1.63021310033210      4.78394917285629      0.03273648092733
  H           3.98513851262838      0.40704018609492      0.96573015500206
  F          -0.12701148906176      0.18268681919271     -2.68694587526740
  F           0.96143907736674      2.04143011629678     -2.69304311354072
  F           1.96441797122717      0.20793457442432     -3.19403930844626
  H           5.21610317062817      2.72644508989586     -0.42353838731377
