19
Coordinates from ORCA-job NEB E -28.942430001700
  C           1.08160655086368      0.19498893146737     -0.58177530058168
  C           0.42140823671540      1.34692887252299     -0.93999631928062
  C           0.84482592079521     -1.06672765933447     -1.36182448534383
  H           2.07742947520954      0.29527000869609     -0.16667189245483
  Br          1.21973889384365      3.00941715924901     -0.15368780274674
  C          -0.07863372192808     -0.12731641277675      1.20354673288391
  C          -1.34042733623346     -0.11351826960744      0.60801950596963
  C          -1.86101947073790      1.06377315444039      0.07963340580172
  O          -0.75776125846931      1.44533819160405     -1.31856406040879
  N           0.42165154212360     -1.26512810346668      1.77564686763952
  H           0.28829419965416      0.78183302773306      1.66422939330972
  H          -1.75413047886907     -1.05868343039129      0.28415089983359
  H          -1.66405315880299      1.99739972409625      0.58971605674377
  H          -2.80187051228340      1.02967582288546     -0.44631491769078
  H           1.00654365115909     -1.94710236575564     -0.74170306031630
  H           1.55059291506162     -1.11661102036699     -2.19188418063742
  H          -0.16346111913926     -1.08578148555385     -1.76670529675986
  H           0.13389021635697     -2.14127592721104      1.36793148532704
  H           1.37537545468055     -1.24248021823052      2.09625296871197
