19
Coordinates from ORCA-job NEB_product E -28.974776446960
  C           1.55236326992012     -0.78422394200655      1.92616034188345
  C           0.92458151868790      0.39282294108976      1.26499908942673
  C           1.24064888353825     -2.04651202353866      1.12551908638476
  H           2.63603353322195     -0.63552316615083      1.96927418628526
  Br          1.61649485198167      2.10322333345536      1.98384487969264
  C           1.06106358920677     -0.84614517754559      3.40737961192728
  C          -0.44406554676319     -0.85363593321886      3.47319334430184
  C          -1.16519481677647      0.15521717067769      3.92439562759075
  O           0.10509654538483      0.44376318643924      0.41933677638118
  N           1.68182271648537     -1.99093168885884      4.05267836391558
  H           1.43696691145631      0.05121020779631      3.91127964249221
  H          -0.92140171396125     -1.76800437931261      3.14434303277406
  H          -0.70982783567696      1.07180077361175      4.26315326383277
  H          -2.24014212551236      0.11262386514267      3.96699025506178
  H           0.16938778533277     -2.22226466806179      1.07453060760680
  H           1.73019150508985     -2.90058001031794      1.58378215113884
  H           1.61235145208566     -1.94007882256378      0.10875330903585
  H           1.20336089457597     -2.84834338153229      3.79774115862346
  H           1.63166858172280     -1.89591828510503      5.05954527164473
