26
Coordinates from ORCA-job NEB E -54.242969215040
  C           0.38981241878611     -0.40209814674034      0.24418601491712
  C          -0.40303654559829     -0.74320682208469     -0.86472104204748
  C          -0.09377352436426     -0.89466566701155      1.59820979323350
  H           1.45462240570515     -0.58073177312544      0.12609951532387
  C           0.15585430295830     -1.11575809799145     -2.20315014627326
  C           0.16961167666865      1.49031662657981      0.38156069507813
  C          -0.85120520024574      1.87604342049905     -0.50057147715273
  C          -2.04024506499744      1.07080520692891     -0.43146635745681
  O          -1.65025893190497     -0.35420121437621     -0.93463557949455
  C           1.52559892156388      2.13127832551452      0.22647069334534
  H          -0.12175883995784      1.45843296950618      1.42707389867792
  H          -0.58573646218501      2.30280733261461     -1.45723409486050
  H          -2.83663461726655      1.34196198222006     -1.11753690846811
  H          -2.41938526342701      0.89596000928832      0.57534242622613
  C           0.13582445091453     -2.40227771238270      1.69499188759435
  H          -1.15580587722721     -0.68517257868929      1.73013749664248
  H           0.47077396397703     -0.40018387560311      2.38958785489694
  H          -0.44043743656528     -2.93042661685866      0.93858217176838
  H           1.18811816765954     -2.63972427724905      1.55718065151947
  H          -0.17110250799172     -2.75957100848140      2.67445868737386
  Br          2.01595584702788     -1.62170421655939     -2.21210040926120
  Br         -0.88256523233676     -2.64659286115994     -2.86974187222996
  Br         -0.10775237147036      0.35124967203263     -3.51475391119179
  Cl          2.21138300103885      1.86121627417114     -1.38621572920743
  Cl          1.37525745178146      3.89517173864052      0.48917534896977
  Cl          2.66688526745704      1.50107131031749      1.43907039207654
