26
Coordinates from ORCA-job NEB_product E -54.287103646190
  C           2.34140688137064      1.45910767081450      0.19911077388207
  C           1.18259961815234      0.97354689295047     -0.63408929548575
  C           2.43648809073051      0.49185571947242      1.40718616515037
  H           3.27462758576205      1.42477771389948     -0.36807861463557
  C           1.53329633049197      0.25456009629929     -1.93717501740969
  C           2.02002597635540      2.93083046505975      0.55920723255494
  C           1.74998865292903      3.68655468754803     -0.71986581560124
  C           0.54673106931701      4.05691508788008     -1.11314558255676
  O           0.03101006613698      1.07277613834298     -0.32340685555185
  C           3.12665041731850      3.65984785949938      1.32260278292700
  H           1.11912790700983      2.94261116002868      1.18162222944435
  H           2.62291797018134      3.89916668069799     -1.32137773061684
  H           0.39581152602602      4.57397374679284     -2.04476376591480
  H          -0.33414514104278      3.85088608921481     -0.52765805630322
  C           3.87111509358397      0.08347033726757      1.71090757032762
  H           1.85641442833483     -0.41072627543349      1.19732315921220
  H           1.98119312137416      0.95973891635595      2.27853773114590
  H           4.30439599001503     -0.45980939977766      0.87442039150266
  H           4.49015638666708      0.94955090895998      1.92039947623767
  H           3.88566099907315     -0.56788875896938      2.58045269336889
  Br          2.64726020714382     -1.29254066198582     -1.55592015797336
  Br         -0.08956833137535     -0.32393545679561     -2.81439237666069
  Br          2.51396804980706      1.44219187845975     -3.12199670904474
  Cl          4.70903354309749      3.46353730904297      0.53795647585563
  Cl          2.74397632511501      5.40949983676863      1.35056242502521
  Cl          3.26215723642492      3.14490135760644      3.01708087111996
