22
Coordinates from ORCA-job NEB E -39.764902364350
  C           0.44843813568185      0.62969009672266     -0.82304105053393
  C          -0.62764957635849      0.59162730498412      0.10967324752815
  N           0.01293960744215      0.70799738089834     -2.21399174502273
  H           1.22139539516291      1.37469106051376     -0.64624451181559
  C          -0.61048063508362      1.45286099863803      1.34024080573674
  C           1.15658757381532     -1.03011324165590     -0.75469357456881
  C           0.08027826475087     -1.88033193262636     -1.06732587499075
  C          -1.09482093637949     -1.77825601898288     -0.23442502194415
  O          -1.54476538511407     -0.32711728129203      0.00418257452178
  F           2.19664712955634     -1.03472554444968     -1.62228159621250
  H           1.55612244043814     -1.01297424395864      0.25946236949639
  H          -0.01275874241110     -2.24321162150980     -2.07635878413463
  H          -0.94631633795999     -2.10235741501836      0.79718774780330
  H          -1.97095361506601     -2.25347864994035     -0.66543405600455
  O           0.47620529243720      1.62235232913162     -2.86145773954381
  O          -0.81373596265808     -0.09033740810902     -2.58988877582488
  C           0.42464945128420      0.95546454744702      2.35602587153609
  H          -1.60394369836086      1.42412355213974      1.78840174355769
  H          -0.38062715824814      2.48247928456190      1.06321262879059
  H           0.21538876733973     -0.07155611306130      2.64548640797639
  H           0.38802969301660      1.57592964524617      3.24712290260045
  H           1.42937029671453      1.00724327032095      1.94414643104876
