22
Coordinates from ORCA-job NEB_product E -39.797937486520
  C           2.47508823839330     -1.41097372339981      0.51197000855202
  C           1.26967352813636     -1.16347255660645      1.43990267413153
  N           1.98887692675997     -1.21509608516152     -0.88129097158975
  H           3.25907734674941     -0.66405933229383      0.66937012466183
  C           1.45088667973318     -0.01155254866987      2.39177556786712
  C           3.06913551551097     -2.82101536228384      0.73203069530068
  C           2.19731351536169     -3.95391498058995      0.28752197247984
  C           1.37302074896562     -4.58782823398877      1.09990061512800
  O           0.28745976305151     -1.84504075470749      1.37583893535002
  F           4.27248781847173     -2.85428790276111      0.05293133219938
  H           3.32354827435593     -2.91597661190630      1.79687680127143
  H           2.29108283977041     -4.22464327372809     -0.75266874149236
  H           1.27207297558680     -4.32374775789638      2.13950926597477
  H           0.74860132128349     -5.38737568608007      0.74525323922979
  O           2.32130311281552     -0.17689126415040     -1.40064559139663
  O           1.28021934432721     -2.05489511300064     -1.36279293200978
  C           2.51750063389867     -0.32075755306259      3.44536803334392
  H           0.49513176152986      0.17752041937587      2.88216114152294
  H           1.73945497586638      0.87497649366705      1.82295499968082
  H           2.24668123930475     -1.21163238488809      4.00682819751715
  H           2.59196404006043      0.51110918119344      4.14017521025362
  H           3.49471940006679     -0.47444496906115      2.99472942202368
