21
Coordinates from ORCA-job NEB E -40.906185178170
  C           0.57179902887876      0.70813686361350      0.56067843771370
  C          -0.71123637545637      0.33333169082673      1.00561742900942
  N           0.76651442042448      1.86351069267918     -0.22884413437636
  H           1.41175430878262      0.48483583030272      1.20973820762564
  C          -0.81246952977158     -0.59392930994951      2.21738976342753
  C           0.78760234688395     -0.67138682573903     -0.90956421755233
  C          -0.36909435731692     -0.37544628745796     -1.66363635245626
  C          -1.62461260935617     -0.68755489830177     -1.19778985727582
  O          -1.73128088952426      0.51181231202262      0.29070133565759
  N           2.02664653569878     -0.39559565896802     -1.44687938271027
  H           0.77247231765507     -1.55970555981416     -0.28982367877793
  H          -0.26749730665055      0.37096773042218     -2.43911175499268
  H          -1.76965853318962     -1.55613891611954     -0.57449545110153
  H          -2.49448685840574     -0.36303546912828     -1.74334213584070
  H          -0.12480293907253      2.19279113883613     -0.58540593708552
  H           1.23321586625788      2.60188563159177      0.28280920348815
  Cl          0.43880908063275     -1.86190604411495      2.26944474720221
  Cl         -0.59124501933226      0.41445419769427      3.68074719847750
  Cl         -2.39753100665757     -1.36679103954177      2.29811737957178
  H           2.07693843847691      0.50322924645014     -1.90774106008219
  H           2.80816308104237     -0.55346532530426     -0.82860973992192
