21
Coordinates from ORCA-job NEB_reactant E -40.936357185690
  C           1.65462475757153      0.17187401452521      0.16266283238370
  C           1.60722160685260     -1.15436409333258     -0.06438524444245
  N           0.88247890553725      1.08741318675478     -0.48154539472543
  H           2.29035104534734      0.55800688144543      0.94516638103518
  C           2.39957528949211     -2.09650882806861      0.78768928715615
  C           2.93496227550443     -3.62598056527810     -2.61306515425872
  C           2.71526072276228     -2.31976581708699     -2.46373260705953
  C           1.34698529216141     -1.73292266190185     -2.37568613145526
  O           0.80635378978163     -1.71439188933355     -1.03437467118490
  N           4.17537668254087     -4.20809103524432     -2.72323130100213
  H           2.10466559544188     -4.30848413672269     -2.73682651227694
  H           3.54581243501629     -1.64160802775987     -2.33016048776617
  H           0.61957336145244     -2.33206412690495     -2.92685903865050
  H           1.35081340683414     -0.70917317020576     -2.77396441739803
  H           0.32736017811923      0.75959833250444     -1.25380064477988
  H           1.16130253753255      2.05109655541169     -0.48322086198881
  Cl          4.17181222601423     -1.93701018739086      0.48362436715896
  Cl          2.17334737396311     -1.74340681214519      2.52689705732981
  Cl          1.94950109163204     -3.77304264077683      0.50753039170190
  H           4.94305806433596     -3.64159863279765     -2.39402244551430
  H           4.23756336210669     -5.17497634569175     -2.44899540426266
