18
Coordinates from ORCA-job NEB E -33.512754854530
  C           0.58364075587042      1.46471565512994     -0.45958428954767
  C          -0.38406660296823      0.87010910914220      0.35239804254766
  F           0.18265933223196      1.98361151099850     -1.63830980243118
  H           1.36989726390593      2.06050770776376     -0.00970370908352
  O          -0.04244185958000      0.75916836761108      1.66711629719888
  C           1.40955167237296     -0.23985074870348     -1.13332741700750
  C           0.31636361277096     -0.83905588029583     -1.72959315232953
  C          -0.75944425528321     -1.21733477122330     -0.87229492688665
  O          -1.32263324073395      0.14679791226376     -0.15701106773317
  I           3.04129104533981      0.37406095277553     -2.33914317947578
  H           1.76428355799171     -0.58417767751416     -0.17084924083017
  H           0.09446297537298     -0.61720738675201     -2.76223376834716
  H          -0.48906983328990     -1.80289572412645      0.00260081532233
  H          -1.65224214948163     -1.58737649721571     -1.36048700833383
  C          -0.87507613090053     -0.04465870520959      2.48740084134599
  H          -0.82586382099134      0.38286887216697      3.48687499247927
  H          -0.50753783103956     -1.07407342218865      2.51351726059321
  H          -1.90377449158838     -0.03520927462257      2.12262931251883
