18
Coordinates from ORCA-job NEB_reactant E -33.538813843830
  C           1.87988378706749      0.00427438637509     -0.12215576305685
  C           1.92745703877048     -0.95624368340827      0.80406477963704
  F           1.88789731310632     -0.22051287236574     -1.46294586217510
  H           1.84370623714704      1.04623733420266      0.13568297556734
  O           1.91118536104499     -0.54123702751642      2.09588242854518
  C           4.37377768550026     -3.75914078554922     -1.29623879624325
  C           3.57320862332375     -2.73292309722392     -1.09045424818162
  C           2.16307665047698     -2.89608516237720     -0.60245296449510
  O           1.96798229869479     -2.30493821088633      0.67279795155300
  I           6.34828467060212     -3.55873423867889     -1.98432091567640
  H           4.07869492608526     -4.78415862839569     -1.14556413841354
  H           3.90391131104049     -1.71765909620910     -1.25171662113067
  H           1.92906784799103     -3.95250225727212     -0.44640260015382
  H           1.46383832486072     -2.47916278746245     -1.33516231878060
  C           1.94736700530832     -1.54037584994271      3.09921614631438
  H           1.93179498672276     -0.99597903423193      4.04072406293277
  H           2.85804855258319     -2.14004685219597      3.03041095387269
  H           1.07841737967403     -2.19921213686179      3.03443492988455
