18
Coordinates from ORCA-job NEB_product E -33.571688631890
  C           3.35275428190049     -0.69217364806218      0.01446780918772
  C           2.19145404358485     -0.98633900918893      0.97056152525337
  F           2.94326058980591      0.21391295862404     -0.92208583449627
  H           4.18376297082521     -0.23728607742292      0.56828689401861
  O           2.65141923183729     -1.64005575413533      2.03904240469327
  C           3.76463375348411     -2.00554844759341     -0.64209417283465
  C           2.65750634502622     -2.59422345810420     -1.43936984811464
  C           2.25582924439869     -3.84566180126237     -1.30925063972352
  O           1.04667061022624     -0.70217286821946      0.77937197813534
  I           5.49261238573185     -1.66059628186594     -1.93572198991246
  H           4.12043545645076     -2.68967201985901      0.12843020699169
  H           2.18702255024458     -1.92200694222379     -2.14335139854638
  H           2.72233462862654     -4.52561910214005     -0.61411019116682
  H           1.44420918433086     -4.23906084338260     -1.89520854874894
  C           1.67482783668872     -2.01508612666463      3.00822336200206
  H           2.21511176098958     -2.53729722214655      3.79280738843365
  H           0.92567950348704     -2.66556197124290      2.55374189171953
  H           1.17967562236103     -1.12775138510975      3.40535916310844
