18
Coordinates from ORCA-job NEB E -34.247328862830
  C           0.19530324388061      0.91841360522491      0.36767802677852
  C           0.26624285852958      0.25391801584306      1.59248368362858
  O           1.26869728480544      0.91231035521183     -0.46031018143529
  H          -0.44006589880185      1.80055315658343      0.32935449593842
  F          -0.76770374142796      0.64423459316518      2.43490928404335
  C          -1.01973494918524     -0.56467384250068     -0.55361815356638
  C          -1.14296285508720     -1.61558597778623      0.34067180232054
  C           0.02535302176844     -2.19815899842908      0.83333655947269
  O           0.76105710643727     -0.85785465636937      1.82574497007728
  Cl         -2.43962845308429      0.28934710678799     -1.05652667929916
  H          -0.27018839206364     -0.62334803371098     -1.33212388737465
  H          -2.04879717975916     -1.68878182424345      0.92728685042053
  H           0.87913342381817     -2.28254920222644      0.17687915054696
  H          -0.05050272301983     -2.96344706779030      1.58930027996963
  C           1.19737796049577      1.82080691634907     -1.54112138688136
  H           2.13183940735852      1.71455475195247     -2.08781891113427
  H           1.09768109104291      2.84979374007923     -1.18306448990254
  H           0.35689879429247      1.59046736185937     -2.20306141360285
