18
Coordinates from ORCA-job NEB_reactant E -34.279277463270
  C           1.11577862191127      0.07760751524912     -0.24852295076092
  C           1.02424756232821     -1.07215997093006      0.41403190236242
  O           1.44652853196529      0.13554625108778     -1.56605238012391
  H           0.92918185754720      1.00648426492694      0.27502848569209
  F           0.59234640513030     -1.02210574283541      1.71128950956129
  C          -1.19031510808792     -3.92109890850089     -1.72042338570846
  C          -0.84048965966892     -3.07331396278397     -0.76890945885787
  C           0.32373600573740     -3.30484919529751      0.14489269151158
  O           1.32954429736557     -2.30000292738429     -0.01998143595218
  Cl         -2.52127348668275     -3.64767990727830     -2.76734413581699
  H          -0.68031351939420     -4.85485145156380     -1.90216754093241
  H          -1.37434528775958     -2.14380284294342     -0.62969363948032
  H           0.82790750466307     -4.24412791129722     -0.08551037033515
  H          -0.01497336918671     -3.31654324077787      1.18936537841962
  C           1.87441248365113      1.40126981701199     -2.01517747404648
  H           2.00884414783094      1.31125875835411     -3.09113757957906
  H           2.82478085255947      1.68719907593183     -1.55283324939845
  H           1.12640216009023      2.17297037903099     -1.80415436655480
