18
Coordinates from ORCA-job NEB_product E -34.295626478020
  C           0.48125527965585     -0.76878267773799     -0.98404727555015
  C           1.40862558991979     -0.93860687095621      0.20375515534264
  O           1.17905064647419     -0.35585881873487     -2.12388129874613
  H          -0.31018974483800     -0.05076012939737     -0.70807401257900
  F           0.71073640350159     -0.83624998987109      1.37402197071734
  C          -0.14754762254126     -2.14179627963118     -1.29589260634398
  C          -0.76576671025450     -2.79522958710163     -0.10692477461711
  C          -0.42999758016813     -4.00045789840328      0.31447440612883
  O           2.56763814756036     -1.13527492755935      0.23395495609496
  Cl         -1.41938181770639     -1.88723664379280     -2.53584871363745
  H           0.61630251871117     -2.76925411883898     -1.76113046095902
  H          -1.53585181302600     -2.22221668374342      0.38990141459246
  H           0.33116388761020     -4.58365639721186     -0.17691743949075
  H          -0.90124463554254     -4.44795095721778      1.17152680730547
  C           1.60765637488166      0.98831262954561     -2.09029939866958
  H           2.07098792256399      1.17446503127246     -3.05607051234727
  H           2.34058077309732      1.15913869378141     -1.29573149659283
  H           0.75898238010069      1.66841562559833     -1.95331672064843
