19
Coordinates from ORCA-job NEB_product E -30.522145113870
  C           2.48827993252528     -0.73688109513825     -0.75465229842070
  C           2.05179030752060     -1.87616235977635      0.12474759592818
  H           1.87995678122969      0.14678495826152     -0.54464173275675
  H           3.52056531966600     -0.47753975719356     -0.49727788101469
  C           1.93051814880986     -1.46041661022731      1.51676788291279
  C           2.42420760050011     -1.08851174380741     -2.24727343256287
  C           0.99112093463794     -1.11831983391297     -2.70863555296158
  C           0.34719179975213     -2.21716557120532     -3.05049611467808
  O           1.83197486956107     -3.00358657774592     -0.23123566058528
  O           3.18327374694229     -0.09876892673443     -2.92090964158871
  H           2.88202339192213     -2.07963772385931     -2.40330746737788
  H           0.51156473130736     -0.14842621664108     -2.73900880590929
  H           0.82232610219634     -3.18346040795082     -3.01727499122133
  H          -0.68468335714840     -2.19938941332734     -3.35735141521733
  N           1.83502794462454     -1.11420209188555      2.60320790004212
  C           3.38797448574438     -0.38020729142804     -4.28273125783271
  H           3.92138646717643     -1.32987076428839     -4.41313963932521
  H           3.99372172589035      0.43412047867210     -4.67461678162097
  H           2.44117906714193     -0.43125905181155     -4.83157070580972
