20
Coordinates from ORCA-job NEB_reactant E -51.522198998690
  C           1.28020189819037     -0.93132590171071     -0.98105047014655
  C           2.15523963147195     -1.56946760707297     -0.19639634236779
  C           1.48562979314458      0.39967448199615     -1.58139013915162
  H           0.34833635516725     -1.41522853239846     -1.22944075614469
  Br          3.81577076863237     -0.83334183098854      0.32250472283925
  C          -0.10184285457416     -3.85022970743972     -2.26492436488168
  C           0.96012834073731     -3.93770884842439     -1.47944164645362
  C           0.94684729882116     -3.61366950487962     -0.01624818496091
  O           2.04411526517840     -2.78443332319753      0.34640987224299
  C          -0.10603044495505     -4.08288611642192     -3.73288354449320
  H          -1.06902013201422     -3.55747173315051     -1.87759361482395
  H           1.92323910632343     -4.23028120659043     -1.87351028964576
  H           1.10390425110170     -4.52310311629305      0.57168679112124
  H           0.00019316784846     -3.15077039678165      0.28661401514888
  Br         -0.06747201996878      0.88473965735159     -2.65420814905465
  Br          1.72667047896899      1.82133574883274     -0.23298519694593
  Br          3.05256863757852      0.44105231661639     -2.78314820581009
  Cl         -1.46834933824028     -5.14461773070569     -4.17724926536477
  Cl         -0.34288897556850     -2.48874192859652     -4.53010900827483
  Cl          1.38975877215651     -4.79642472014517     -4.34683622283231
