20
Coordinates from ORCA-job NEB_product E -51.522006876490
  C           1.70761622142382     -1.99704607759677     -1.19515812856432
  C           2.97176288455726     -2.77748917045208     -0.82459433174860
  C           1.87321032230122     -0.63867613157813     -1.86594594115600
  H           1.27103950696320     -1.76378299960024     -0.20794484299234
  Br          4.71363093467444     -2.01038398524581     -1.15841859522199
  C           0.70023795091876     -3.04897062388163     -1.76887508456007
  C          -0.74623588685521     -2.66502189288926     -1.56291971504352
  C          -1.32161924368031     -2.67784284402616     -0.37473208812577
  O           2.92767852667448     -3.81984326336510     -0.26016980790358
  C           0.94586766396633     -3.52873908076250     -3.19977504234309
  H           0.88511607983077     -3.93021054151654     -1.13723947772135
  H          -1.30788177785870     -2.39813957653398     -2.44381850587724
  H          -0.79063064343655     -2.95587384790963      0.52197581482789
  H          -2.35387290964792     -2.40515469595407     -0.25293130549039
  Br          0.14024932010845      0.17899266284977     -2.24034391094773
  Br          2.71061851692030      0.58470320522551     -0.56170294404097
  Br          2.90692572688098     -0.54940682043788     -3.50116017353209
  Cl          0.01286263509624     -5.04313793739358     -3.41827245119602
  Cl          0.40066420950374     -2.39304119888926     -4.45069163075792
  Cl          2.67015996165869     -3.90653518004265     -3.45748183760492
