22
Coordinates from ORCA-job NEB_reactant E -39.793193914060
  C           1.75532354673465     -0.22696081128799      0.02639904870002
  C           1.14958334261078     -1.00461003509083      0.91007195248593
  C           2.00693016611012     -0.39503235520838     -1.43950095785686
  H           2.15183680178841      0.68904558555283      0.44196109768716
  F           1.06722942931223     -0.56018890201439      2.18447760560671
  C           2.58439488971132     -4.04285671186785     -1.53250263903698
  C           2.14177124485677     -3.43289774961330     -0.43958317387306
  C           0.71109768368351     -3.11960081059190     -0.15536814357910
  O           0.52451436457238     -2.20651582380075      0.89469133809078
  N           3.98320342200297     -4.30148139862850     -1.71803868294772
  H           1.96985540577573     -4.39108398488257     -2.34845051787918
  H           2.85762748862114     -3.13946626849086      0.32012713773554
  H           0.21133978288913     -4.03120124311423      0.19809593615017
  H           0.18854600795084     -2.78837940893247     -1.06355105012460
  C           3.50887117377124     -0.39977792216678     -1.73220331062302
  H           1.55398106204513      0.45519460855942     -1.95774895874242
  H           1.55314200704840     -1.29967660730152     -1.83819056080810
  H           3.96111479214241      0.53077299211666     -1.39940948939149
  H           3.68407491580006     -0.50487207638741     -2.80005095218452
  H           4.00466234628330     -1.21928098091911     -1.21739083481812
  O           4.75903192501099     -3.87464828888718     -0.89158479329356
  O           4.28956820127849     -4.92818180704290     -2.70775005129757
