22
Coordinates from ORCA-job NEB_product E -39.822075458490
  C           2.27900318314816     -1.65950076158403      0.14946438835633
  C           1.07585494126051     -1.60644974106799      1.04331060645503
  C           2.30886106674807     -0.44784022070087     -0.80028322754320
  H           3.15901468900539     -1.59821878428803      0.80822754829507
  F           0.99297036280419     -0.40684232170512      1.67662815977624
  C           2.31788664293322     -3.02490883264316     -0.56317965800706
  C           1.48510193638465     -3.09586215913868     -1.80801859700762
  C           0.26272709867342     -3.59222864845065     -1.82617446705336
  O           0.26032360339303     -2.43104844919967      1.26016836527619
  N           3.73642920477011     -3.39551336191766     -0.85399338780486
  H           1.96495836171500     -3.78073201154085      0.15169295730049
  H           1.94687499872128     -2.71769443530677     -2.70859899949909
  H          -0.20780479908886     -3.97828357005996     -0.93734995358753
  H          -0.32066792932293     -3.61587442738057     -2.72959558076614
  C           3.61909916062686     -0.34582366025449     -1.57165047612264
  H           2.18312318948086      0.45607933788544     -0.20195081611789
  H           1.46757402654668     -0.51114765960631     -1.49333894165433
  H           4.46779911743940     -0.34360539502967     -0.89133369793353
  H           3.63576003618670      0.58017865398627     -2.14047118971306
  H           3.74238689683674     -1.16629575735412     -2.27387440775841
  O           3.96418437304212     -3.94756661891225     -1.89857176983062
  O           4.55123983869542     -3.14672117573086      0.00089314493998
