17
Coordinates from ORCA-job NEB E -34.042396982300
  C           1.01258203646043     -0.68930957680435     -0.69545124075069
  C          -0.37482808230080     -0.67921617959857     -0.71398610936598
  H           1.49064775232552     -1.50600016104786     -0.17937974047997
  H           1.54115698033413     -0.33773816993650     -1.56882391160765
  C          -1.13086619021193      0.12116988983708     -1.74593193639815
  C           1.34760769583399      0.63308806910335      0.71878228342100
  C           0.59411523966223      0.11170109671811      1.75126694825370
  C          -0.82971625149498     -0.01194075773474      1.56025161228879
  O          -1.03400395047521     -1.00999371708887      0.37621601698867
  H           2.42453398506337      0.61821410370821      0.80955300558643
  H           0.96390109003253      1.47917617279434      0.16815449369655
  H           1.06205625528712     -0.55890816596721      2.45812476340021
  H          -1.33003291016754      0.89386028004081      1.22124272532575
  H          -1.37100675325455     -0.49184553917661      2.36896997795875
  Cl         -1.09377295862865      1.90066320877302     -1.39552453560254
  Cl         -0.44060874397540     -0.10101269590372     -3.36087247789968
  Cl         -2.83176519449027     -0.37190785771650     -1.77259187481520
