24
Coordinates from ORCA-job R E -31.829241222080
  C          -1.45709886911569     -0.27223621526869     -2.83350792960833
  C          -0.03872321557679     -2.53521040827831     -1.42388031260105
  C          -1.35405528727175     -2.39928772863648     -1.58890359482221
  C          -2.05633269824639     -1.29659779637551     -2.19916163556486
  C          -1.07546266373781      1.19340485720923     -0.00449396853792
  C           0.17704319372927      0.80149179078464     -0.05733490191477
  H          -1.99706782366189     -3.19156443778065     -1.22198967076181
  H          -3.13351775119064     -1.33563252320937     -2.12841069277632
  N          -2.05180607725658      0.85014999252107     -3.33677689450434
  H           0.38032920182244     -3.40866515211508     -0.95496735736090
  H          -0.38182625740828     -0.26908305331807     -2.93565585653373
  H           0.66768327442398     -1.79078421630237     -1.74724674304109
  H          -1.75536972000868      0.74786701110360      0.69643403858570
  H           0.64362300639370      0.04777659226520      0.55879381367013
  H          -1.45026800511728      1.95307663160352     -0.66656149408306
  F           1.04868608854238      1.33538480972158     -0.93509448919410
  C          -1.34582319526778      1.63597922280963     -4.31449340307672
  C          -3.48810813503988      0.95173528166079     -3.36858239127750
  H          -0.27557369904627      1.57417091602171     -4.13072843062325
  H          -1.64853305936172      2.68180806489024     -4.23438476620403
  H          -1.54131962445524      1.29586453096220     -5.34017678131357
  H          -3.89297942198212      0.72942926846229     -2.38191003496652
  H          -3.93973823071299      0.26319172084308     -4.09459079584769
  H          -3.76776103045399      1.96925084042576     -3.63892570764208
