24
Coordinates from ORCA-job TS E -31.815922958240
  C          -0.06479891342664     -0.28483506629264     -0.67798434400801
  C           1.49258664689272     -1.95860574221647      1.07432781064629
  C           0.17212389364095     -2.19122227512224      0.80652170734544
  C          -0.60116449183837     -1.36541912560924     -0.02176287415919
  C           0.56102730932509      0.79170966765609      1.36892130314849
  C           1.40800577727051     -0.02945207079624      2.04106007698758
  H          -0.36183261665554     -2.91134607919907      1.41264400652749
  H          -1.67009862885624     -1.51281200148230     -0.00932249410953
  N          -0.76433045756339      0.60271258535986     -1.44266223780272
  H           2.00579227024579     -2.58070192691785      1.79090970133387
  H           0.99794412634186     -0.25850470344161     -0.85785725149537
  H           2.13698211221988     -1.50182721539717      0.34319411372446
  H          -0.47181280493208      0.83666560339082      1.64989831337535
  H           1.16509190974167     -0.51762217401598      2.97241322833998
  H           0.94976900402924      1.55094501968987      0.71783290464931
  F           2.74529829827402      0.19471407270161      1.93646305010376
  C          -0.08883632046978      1.77353898931659     -1.94372144950277
  C          -2.18765544974787      0.75085377072145     -1.25481855991000
  H           0.96814548611560      1.55885004113157     -2.08706692204277
  H          -0.18430336459428      2.62687871797498     -1.26029595967182
  H          -0.51662708446419      2.05653785775462     -2.90744635220725
  H          -2.43588536454795      1.11477249572180     -0.25092103858964
  H          -2.68514532140428     -0.20520485182442     -1.41330979504726
  H          -2.57027601559670      1.45937441089599     -1.98701693763570
