19
Coordinates from ORCA-job NEB_reactant E -48.741262283070
  C           1.70611768940491      0.13707814258253     -0.14548614743445
  C           1.63812845246788      1.18186019683114     -0.96948262950384
  F           2.25590325861451      0.18954957805827      1.08154673655169
  H           1.33014496899633     -0.84309517303650     -0.38095327516557
  C           1.01242666329554      1.07401660054621     -2.33636475120026
  C           2.85513269927734      5.06185579748477     -0.65988432960030
  C           3.07866107096451      4.25264201227673      0.36797964926458
  C           2.70097729912509      2.81648388008149      0.42043591447289
  O           2.06887540059005      2.45218408094714     -0.79404759156918
  N           3.25863636191975      6.43763033451175     -0.61376086013634
  H           2.37200117217922      4.77249363817280     -1.57916026174157
  H           3.57270574709550      4.64039302716750      1.25031502361963
  H           2.02841216115492      2.65257275214292      1.27390477805658
  H           3.60443399629595      2.21302539413012      0.58546523950914
  Cl          2.23542218970442      1.51451910934554     -3.55774127954689
  Cl          0.39661046304105     -0.53183872172678     -2.71396357171853
  Cl         -0.33570912052268      2.23729552497264     -2.43821486045795
  O           3.81256402610191      6.84065496523397      0.38593278278640
  O           3.01245550029378      7.10657886027778     -1.59242056618602
