23
Coordinates from ORCA-job NEB_product E -53.917300842000
  C           2.61149046829913     -0.96618962669016      1.36332935396753
  C           1.49738180093169      0.05222385842182      1.28162408701101
  C           2.84187325758758     -1.50858654983221     -0.05592892706897
  H           3.54831246459193     -0.49869248500337      1.68740838328412
  C           1.79773736587370      1.42914588558293      1.85845941945864
  C           2.17352022845713     -2.00031586941492      2.43769360592828
  C           0.81628713752190     -2.58203858280065      2.15221697398507
  C          -0.18218080234985     -2.52795294159404      3.01367834046784
  O           0.43683098255714     -0.15915215659600      0.77043639988912
  C           3.18037457504773     -3.12540078046109      2.69581744074412
  H           2.11738533093306     -1.44796811437209      3.38693974615729
  H           0.69197558981269     -3.07170502382372      1.19770489249246
  H          -0.08667823350864     -2.05216026955758      3.97655300565708
  H          -1.13887182721593     -2.96323316748604      2.78755247798518
  F           4.09081224271555     -2.04891391092809     -0.14423988315320
  H           2.80464082824977     -0.68936956015328     -0.78233103037294
  H           2.12083957383755     -2.27940056401819     -0.33838213953826
  Br          3.13309818870354      2.22035015249083      0.65697794641446
  Br          0.19565128405347      2.50793773071911      1.86189422283082
  Br          2.52476432318393      1.32696584171238      3.65597737745165
  Br          2.66265652508389     -4.00932066124527      4.37481398061343
  Br          3.20983096490893     -4.51184121452325      1.33568971768707
  Br          4.99636773072411     -2.44558199042711      2.95321460810819
