23
Coordinates from ORCA-job NEB_reactant E -53.912952763330
  C           1.47981062309824      0.39792351942189     -0.04842713770848
  C           1.58411371135137      0.07128393368652      1.23911362794939
  C           0.73549074457896     -0.42872283294656     -1.05110234334324
  H           1.96173041422117      1.28608896332927     -0.42401520858456
  C           2.29936895493769      0.91829836049663      2.25392878645985
  C           2.15576234691610     -2.74712701665442      3.73101745790139
  C           2.28223237279840     -3.02423648163759      2.44312420826521
  C           1.50439511213178     -2.31657631265265      1.37398165716229
  O           1.05429448211303     -1.03673847627613      1.82213348018557
  C           2.90131318066216     -3.37240358904299      4.84079750417584
  H           1.45476851039013     -1.99026259264753      4.06263126034537
  H           2.96027555414640     -3.78502031442476      2.08319649061173
  H           0.61643277850812     -2.91075061149366      1.12354478671250
  H           2.12401125538443     -2.22252278986855      0.47840803596880
  F           1.58757087624233     -1.30746619700374     -1.68847237015420
  H           0.30667576268815      0.20876780131458     -1.82902153984002
  H          -0.04559530741082     -1.03294815287645     -0.57902927503390
  Br          2.57452550765114      2.75741099195674      1.73282361020991
  Br          1.30203605698629      0.90398961700137      3.92069449798859
  Br          4.06676809806665      0.09420986431057      2.58373087254074
  Br          3.84812847081793     -1.97254918672532      5.85466795024285
  Br          1.62209442373952     -4.24316428353661      6.06555347868912
  Br          4.20689606998085     -4.70078421373059      4.29822016925523
