18
Coordinates from ORCA-job NEB E -33.562337667510
  C          -1.11583413658775     -1.54999820455595     -0.11919685587519
  C          -0.70327254321259     -1.81328319491580      1.14002378462479
  Cl         -0.27254304607175     -2.52660496117594     -1.32916870588602
  H          -2.17652313141888     -1.51891361868560     -0.32604788142148
  Br         -1.21269373873841     -3.76744987990741      2.25380846837124
  C          -0.10687471887874      1.57685124272286      0.05930997382826
  C           0.64220705051547      0.52745922396589      0.40602253005249
  C           0.68581847153270      0.01519397877206      1.79416086947089
  O           0.01099044916651     -1.27382595519309      1.99725319092997
  O          -0.24874768054507      2.12994365909824     -1.14654824677574
  H          -0.69525363640016      2.11656829392948      0.79148152867129
  H           1.23811826573383     -0.00738230767284     -0.31517438692657
  H           0.20286567716199      0.69521561432932      2.50068019332426
  H           1.70657900004987     -0.19056927137148      2.12954136500274
  C           0.39385694290395      1.50627919944056     -2.24132836782649
  H           0.09314854633849      2.06720011645273     -3.12366833993041
  H           0.07701965364517      0.46483214570660     -2.33756373725332
  H           1.48113857480540      1.54848391906037     -2.13358538238071
