18
Coordinates from ORCA-job NEB E -42.324257431620
  C           1.00770322992308     -0.72613422412359      0.07928185887652
  C          -0.33674386999606     -1.12110397774633      0.29075282512066
  F           1.81939724051821     -0.70845948219901      1.15811107474040
  H           1.54523017239546     -1.14689731387388     -0.76991034597785
  C          -1.08747410181801     -1.73750254120589     -0.87713399972486
  C           0.87671562744820      1.13180643643545     -0.25176704699410
  C           0.15489747974357      1.54429839660826      0.89096759263527
  C          -1.15882536200130      1.09279094486041      1.07998822136211
  O          -0.99911143095124     -0.61062295561409      1.25422009437116
  O           2.16150053216790      1.57616034153408     -0.34226269484887
  H           0.33460315594250      1.08667944659442     -1.19615942954789
  H           0.74364700734518      1.85538530539686      1.74074264274555
  H          -1.82546987393829      1.08707172322784      0.22541287138716
  H          -1.64315321795228      1.34461208800105      2.01218721864850
  Cl         -1.00295898633977     -0.73303232298330     -2.36780920079526
  Cl         -0.35995762282305     -3.31362815904748     -1.27367358113458
  Cl         -2.78682877356355     -1.96093662164601     -0.46443655926794
  H           2.55682879389946      1.33951291578119     -1.18851154159598
