18
Coordinates from ORCA-job NEB_reactant E -42.358664250930
  C           1.55320917665511      0.20267255429487     -0.18988002345250
  C           1.71470224674569      0.66875777019034     -1.42880018889065
  F           1.78682950407339      0.92592924942834      0.92210213846665
  H           1.21957146826446     -0.79374835076618      0.04121868416835
  C           1.44172244694328     -0.19830745635019     -2.63174559763243
  C           2.25451996066853      5.23293916730513     -1.65402293385070
  C           2.91821607337102      4.08434281958950     -1.66686470466752
  C           2.48784903840667      2.88067313157145     -0.89743218584058
  O           2.12423515586338      1.87889734297890     -1.85442831619946
  O           2.58906855130400      6.34854332993657     -2.32827757731328
  H           1.36673927117638      5.38595263975836     -1.05673622924087
  H           3.79730916102564      3.95889095127511     -2.28361010358795
  H           1.63067311278304      3.11613331606996     -0.25905757189834
  H           3.30899327575122      2.50370641524468     -0.27575399608325
  Cl          2.95941798020535     -0.39554560703866     -3.54625915858614
  Cl          0.82119443668648     -1.79900641851370     -2.23771504849636
  Cl          0.25612069653612      0.62129097719639     -3.67770934170331
  H           3.37542844354023      6.18997816782915     -2.86722784519166
