19
Coordinates from ORCA-job NEB E -48.059330509680
  C           0.77978567147792     -0.39402369393499      0.88237664610786
  C          -0.57127972981614     -0.13495703465089      1.20488082454134
  Br          2.05342888898667      0.85514847280626      1.58378478687536
  H           1.14809528825089     -1.40944635003693      0.98600141515222
  C          -1.55989591368321     -1.27732940881900      1.27906717276437
  C           0.73320113131855     -0.03719895633432     -0.96644593883427
  C           0.24170096318991      1.27455686256603     -1.03720419707424
  C          -1.06013642285476      1.53072545497897     -0.52216497440890
  O          -1.03591690053932      1.05696115168063      1.01869078621858
  N           2.10971299954161     -0.24472500018749     -1.42359957094344
  H           0.10792961486064     -0.87464039246341     -1.26635442712395
  H           0.97036029467845      2.07372940284772     -1.08206185333897
  H          -1.86294543299867      0.90524897811764     -0.90528071190760
  H          -1.34334568465630      2.57375063739395     -0.44239396528182
  Cl         -2.06593118914747     -1.81500636480424     -0.37588516040959
  Cl         -0.87133997024999     -2.68096702995044      2.11086072461076
  Cl         -3.01301499575098     -0.73537423327083      2.13461775706565
  O           2.87229965491161      0.68259921234589     -1.34121023686778
  O           2.36729173248060     -1.34905170828457     -1.83767907714560
