19
Coordinates from ORCA-job NEB_product E -48.099476218180
  C           2.16153149636360     -0.70782096821632     -2.13409857798135
  C           1.06575400551925     -1.72915044014271     -2.34623590666336
  Br          1.44877571259444      0.46781443360647     -0.74492601275449
  H           3.07588041078079     -1.15234332612301     -1.73924275650864
  C           1.12996040181584     -2.97504093921749     -1.45909446344990
  C           2.40744921532317      0.12277644589848     -3.38765069658182
  C           3.48390385339080      1.15181412048568     -3.18504724573936
  C           3.34702084831121      2.41856412523289     -3.52700579912064
  O           0.21215279601922     -1.60203203786021     -3.17361938482011
  N           2.87675848691279     -0.78520763330073     -4.48633397130582
  H           1.48246595855127      0.59123139541616     -3.73961250108181
  H           4.39932465105518      0.77801828929052     -2.74686884948647
  H           2.44033690476964      2.79616367807081     -3.96872700950175
  H           4.13931955206689      3.12875777039603     -3.37103619354118
  Cl          2.20114308233980     -4.05809156943892     -2.41095377771315
  Cl          1.83972908106830     -2.70875300578442      0.13466523821148
  Cl         -0.47182174008257     -3.69703671475711     -1.29059243415726
  O           3.38980125830909     -1.82400855663921     -4.15078440941486
  O           2.73391402489132     -0.38865506691690     -5.60863524838951
