17
Coordinates from ORCA-job NEB E -33.926359228810
  C           0.78814656294948      0.69943871626566      0.03001391020735
  C          -0.54553369418574      0.58093809510692      0.42161161803355
  Br          1.05707633959775      1.67532508861357     -1.98223325799259
  H           1.35599727618150      1.43177608188231      0.59157217974066
  C          -1.17403564857971      1.51280162451220      1.40618779854933
  C           1.50379986421488     -0.65497459211506     -0.20962352840569
  C           0.58513359599307     -1.54069284237411     -0.93383453664773
  C          -0.86325519242888     -1.45508275082814     -0.75282583245890
  O          -1.39026352402948     -0.38732221975121     -0.01037938385807
  H           2.43485041882705     -0.51719967656521     -0.76288493193302
  H           1.76173741948463     -1.03517616399826      0.78666442938053
  H           0.92743154158433     -2.05225918144253     -1.81681272997075
  H          -1.25728735388488     -2.35495181702687     -0.25573732146204
  H          -1.34650291084839     -1.42273797389810     -1.73995761807079
  F          -0.59550230285335      1.38426540381321      2.64045244080706
  F          -0.99074828915790      2.81084654844452      1.06913006372879
  H          -2.25104410286437      1.32500565936109      1.51865670035233
