17
Coordinates from ORCA-job NEB E -42.312675933600
  C          -0.12289344569731     -1.47505828573625     -0.18480258657897
  C          -1.49997662197088     -1.23254778267080     -0.06980928848998
  F           0.51215578955628     -1.85214599780886      0.93822726850965
  H           0.26488562740928     -2.01217150647333     -1.04514463820798
  Cl         -2.34752064488383     -1.15190595931297     -1.61505776669078
  C           0.46938879711279      0.38229994092362     -0.36148318129863
  C          -0.07648012320587      0.95396628017780      0.79135140714500
  C          -1.49268780718766      0.99656390646103      0.90392099884339
  O          -1.97624223604604     -0.56817542366629      0.90176698619364
  C           1.96430029295782      0.38564633941424     -0.54714674577236
  H          -0.03737482945527      0.57253698672472     -1.30545298675463
  H           0.52028244181138      0.98147989052790      1.69010339262356
  H          -2.03913311414640      1.35952067800099      0.03692414336800
  H          -1.89695352440166      1.35199511797375      1.84285334163397
  Cl          2.43739550074248      2.05343566275784     -1.01315670266371
  Cl          2.86225771882090     -0.05415826765609      0.91089288514961
  Cl          2.45859617858398     -0.69128157963732     -1.87398652700980
