17
Coordinates from ORCA-job NEB_reactant E -42.337034060790
  C           1.85754207214845     -0.00109717139974     -0.37571894686606
  C           1.25964649264449      0.86528639813338     -1.18992153773878
  F           2.66351881556299      0.36512606272365      0.64751975085894
  H           1.75713468481038     -1.06795730444006     -0.46794021599935
  Cl          0.26461446436383      0.21808631032755     -2.43995640607256
  C           4.32468639098913      3.94195141213666     -0.98139097338636
  C           3.54224531243258      2.88245728518795     -0.85235450265788
  C           2.11460815152568      2.96193081987959     -0.40682816604356
  O           1.24540675310666      2.20714230107729     -1.24224954464060
  C           5.75259952757555      3.91563893526399     -1.39077780216275
  H           3.96027644563224      4.93802519367039     -0.77094868761579
  H           3.91368199883521      1.89076534414903     -1.06557711041520
  H           1.73888416382585      3.98461617959918     -0.47982330253804
  H           2.03453644925826      2.62667749370836      0.63439299125905
  Cl          5.97095142225853      4.96515622658023     -2.82297605979462
  Cl          6.75352622434322      4.57673277211206     -0.06163739496979
  Cl          6.35564063068696      2.30346174129047     -1.78891209121663
