24
Coordinates from ORCA-job NEB_reactant E -45.025684487580
  C           2.12804993400745     -0.13660064726528     -0.05463888694452
  C           1.93988741480057     -1.26931096178328      0.62257538667867
  C           1.87419588635591      0.17723602829387     -1.49848645338545
  H           2.51918620377619      0.66714030299950      0.54825707916006
  O           2.25398182250372     -1.26041151849481      1.95228055335417
  C           4.02343912707047     -2.83896746112366     -1.01271873689091
  C           2.90004282887892     -2.98896196764841     -1.69651911913490
  C           1.52310514026400     -2.88124233543748     -1.12278880142755
  O           1.45948763003137     -2.49048528072327      0.22343968593959
  C           5.37318835468666     -2.94960923656670     -1.64296695724547
  H           4.05665545862485     -2.61148595050148      0.04115562061900
  H           2.92695864228576     -3.21657912219879     -2.75390868873495
  H           1.06118938186676     -3.87650083299423     -1.13807896441833
  H           0.91756408622859     -2.22642668703286     -1.75964931338321
  H           0.82258703944709      0.05791830611945     -1.76089647454485
  H           2.47129888750604     -0.44562283341922     -2.16617541645532
  H           2.14285601625423      1.21299196521570     -1.68535066037684
  C           1.92617800296778     -2.40117026779003      2.71819433312606
  H           2.22503542366513     -2.15761468418043      3.73577315275949
  H           2.46882728698862     -3.28688062575144      2.37590573984389
  H           0.85378342427544     -2.60811337020704      2.68533315006336
  F           6.07075243127329     -1.80404659561946     -1.54624352264239
  F           6.12617481130783     -3.89563830088046     -1.05279074937718
  F           5.33117476493335     -3.25811792301017     -2.94780195658243
