17
Coordinates from ORCA-job NEB E -26.155912981320
  C          -0.08581683697632     -1.48820571235352      0.10300156435953
  C          -1.41761940315551     -1.20851160820523      0.29227378204410
  H           0.54332594439656     -1.52429187462188      0.97550049370460
  H           0.18071434633233     -2.16472083085134     -0.69426031635261
  F          -2.25328877584516     -1.48803077375155     -0.76997011671268
  C           0.50497275584609      0.35593237647858     -0.51373765587729
  C          -0.01339910978594      1.14044152741133      0.50071668055715
  C          -1.42506687925124      1.18590846028099      0.68316525299171
  O          -1.85948105788117     -0.34230316208681      1.11285764179963
  C           1.98961715671495      0.21638793757157     -0.68960316942985
  H          -0.05340713410210      0.30967058131699     -1.44310384502331
  H           0.61116028716060      1.35369226674006      1.35716201448485
  H          -2.02672782609963      1.31753151033159     -0.21197343895054
  H          -1.79479127470164      1.75701149932394      1.52491844880348
  H           2.23917501527885     -0.68389518340125     -1.24484065534566
  H           2.49722336099718      0.19266538459674      0.27146179957890
  H           2.36340943107215      1.07071760121981     -1.25356848063202
