17
Coordinates from ORCA-job NEB_product E -26.207352321680
  C           3.16978777796793      0.80849227922176     -1.71925922301268
  C           1.69669810657356      0.59541426946362     -1.71402906272004
  H           3.58893126391787      0.36262736613559     -0.81314733782642
  H           3.57375716420731      0.24859302026015     -2.56928116910854
  F           1.40991247096752     -0.70321533238277     -1.37220464623431
  C           3.53896925737334      2.29463487582467     -1.82698604688948
  C           3.15953852580392      3.00420295279309     -0.55916320034723
  C           2.26604012861620      3.97079185279552     -0.48492614143466
  O           0.80732955766875      1.32644878281453     -1.96229649464890
  C           5.03836266713985      2.44387353396507     -2.08735275146504
  H           2.98018874659999      2.73123046191124     -2.65997436533609
  H           3.68434986555240      2.67034728845299      0.32737717408313
  H           1.72980164412769      4.31216205740751     -1.35427394009823
  H           2.02501677413141      4.45428945215798      0.44626350162294
  H           5.31697449258902      1.96281595245728     -3.02221125702636
  H           5.61291483201024      1.99334290794728     -1.28070902868522
  H           5.30232672475299      3.49644827877448     -2.14942601087288
