17
Coordinates from ORCA-job NEB_reactant E -26.179949091790
  C           1.94111527821016     -0.04892915932349     -0.22470661795076
  C           1.30004420431538      0.48054203052034     -1.25250263545434
  H           2.61614284486893      0.51258663578683      0.38869973719817
  H           1.78494699732696     -1.08184669294046      0.01679932547707
  F           0.46660464752539     -0.28006721157092     -1.98564712316656
  C           4.27379657968232      3.51581889831796     -2.13541808265155
  C           3.55766635740699      2.55255804549641     -1.58028766651191
  C           2.12196105774350      2.70353925120864     -1.17259608388636
  O           1.28293915855442      1.71981188434571     -1.75944879006336
  C           5.70195027991357      3.38378298403939     -2.53939874093414
  H           3.82655257222108      4.48605225461887     -2.31148253380158
  H           3.99004278753933      1.57637998391368     -1.40896513443842
  H           1.72273937285616      3.65625772869386     -1.52841942262327
  H           2.02392923883179      2.66468714163106     -0.07834517543369
  H           6.07708151244395      2.38453759728290     -2.33498180647173
  H           6.31256463326629      4.10833829284361     -2.00144712986085
  H           5.80852247729380      3.59085033513564     -3.60355211942671
