23
Coordinates from ORCA-job NEB_reactant E -44.728904590130
  C           1.15055376142897     -0.00339575947977     -0.43291775314600
  C           0.76831461068285     -1.10896213097894     -1.08675863859230
  O           0.35025859474585      1.07194499561685     -0.22464568694157
  H           2.15484962153555      0.05408643619345     -0.03326212850433
  C           1.74848715713433     -2.23348423721335     -1.26500350558283
  C           0.39203846068170     -0.33094900245392     -4.35469883988485
  C          -0.17129825413593      0.37671253731163     -3.37547331678014
  C          -1.06601215958449     -0.26119138989263     -2.35695223258437
  O          -0.42538036592654     -1.35891340771341     -1.68840085016231
  N           1.19509458021560      0.17593738431018     -5.34972875772304
  H           0.17381932472470     -1.38622133797804     -4.45160002433752
  H           0.04526794870984      1.42758855562740     -3.25703103558243
  H          -1.93773250151965     -0.73511716897348     -2.81737775654703
  H          -1.39933321010801      0.47580045886918     -1.62216434569213
  C           0.98717339991043      2.18865872434071      0.35497412402506
  H           0.21136784378107      2.93703161660933      0.50448323127059
  H           1.76047227655769      2.59183143305922     -0.30662660069509
  H           1.43700529754223      1.93180196036093      1.31886618437398
  Cl          2.87843497884454     -1.83303168940604     -2.60710288916433
  Cl          2.73314452461456     -2.50749963781786      0.18180663456499
  Cl          0.92731925031275     -3.73720359339303     -1.67939831092092
  H           1.57083630498773      1.09567534236947     -5.17420285305422
  H           1.85951855486424     -0.46530008936787     -5.75158464833917
