23
Coordinates from ORCA-job NEB_reactant E -42.559569913470
  C           2.19878428320071     -0.17866262385785     -0.35711778117218
  C           1.74609279136886     -0.35841183603671     -1.59986079000116
  Br          1.92727715279025      1.40877836812864      0.60949853324597
  H           2.74371706871363     -0.93786303707840      0.18039876478289
  C           1.97411992959513     -1.68640221270892     -2.27999248245302
  C           3.53365426698028      1.24507245695402     -4.46452100186320
  C           2.25677604716851      1.45985732774605     -4.18648830786866
  C           1.73099067799630      1.70553937644684     -2.80657259548837
  O           1.03985793917664      0.53214116516821     -2.31908288651204
  C           4.06161795779193      0.96742642695797     -5.83302748639556
  H           4.27510516724057      1.26063555745636     -3.67366215190465
  H           1.50955525353021      1.42037398829439     -4.96639425978150
  H           0.97179618631912      2.49048249639287     -2.80721582907746
  H           2.53946668530665      1.97825126348574     -2.12298063901223
  Br          1.34896747762376     -3.18319042311532     -1.18607311282696
  Br          1.06882751426654     -1.74923319629982     -3.97598017831020
  Br          3.89868265045399     -1.95082371324376     -2.59458240606477
  C           4.63390457975318     -0.44741312158381     -5.92875848555286
  H           4.85365702616962      1.68677350098826     -6.05642113079826
  H           3.26575686147348      1.09055471543349     -6.56891480064939
  H           5.40902498408729     -0.60219298802063     -5.18160849324939
  H           5.06318171833621     -0.61259068848812     -6.91331502340294
  H           3.84898578065714     -1.18290280301949     -5.77062745564404
