23
Coordinates from ORCA-job NEB_product E -42.567940613260
  C           2.89277526245349     -0.08232116550893     -2.59464598554939
  C           1.59906917952355     -0.82274687765478     -2.75788745477407
  Br          2.64557915684146      0.71655994808531     -0.80581613831198
  H           3.74526114046708     -0.75675335864988     -2.49401583965300
  C           1.63471570124323     -2.30386274608477     -2.37449993114948
  C           3.18040106466682      1.00242231722160     -3.64023223266306
  C           2.06031671659177      2.00058897562856     -3.74100063587436
  C           2.08317403114672      3.17734802046634     -3.14429961671236
  O           0.57308908873408     -0.36433820166351     -3.16698661346667
  C           3.46020623273796      0.36284522689170     -5.00961816652316
  H           4.08463808191801      1.52315022064894     -3.30242953133519
  H           1.21050870016258      1.69731501387117     -4.33462283124611
  H           1.26330559554156      3.86891432328472     -3.22801748270453
  H           2.91867904784991      3.49892002737922     -2.54307146926566
  Br          2.68179285212071     -2.74825477451089     -0.81232628622499
  Br         -0.16855492175302     -2.97131541920086     -2.17010765538851
  Br          2.46320559074224     -3.14778994287694     -3.94737230757229
  C           4.80440241784435     -0.35176704096164     -5.08531376341190
  H           3.44869141553034      1.16531724045643     -5.74999307236269
  H           2.65398450671068     -0.32838252390532     -5.26691217010428
  H           5.61122451943223      0.32480161496493     -4.81232189775826
  H           4.97816397130059     -0.69817679147248     -6.10043867263908
  H           4.84417064819365     -1.21997408640889     -4.43217024530897
