16
Coordinates from ORCA-job NEB_product E -26.477044815790
  C           2.98384381442813      0.33609164854027     -1.46603539118647
  C           1.46390947587061      0.33898889379274     -1.43290571446310
  H           3.35895116909623      0.24015568443843     -0.44662081107257
  H           3.35769840452414     -0.49551770945517     -2.06567344207575
  N           0.88976903902172      0.02977008949315     -2.61952011365234
  C           3.49336765431471      1.65549147932420     -2.06329435113082
  C           3.18421347272912      2.81280039212223     -1.16537769427314
  C           2.22835580330100      3.68877990253335     -1.40351252021291
  O           0.81627791903351      0.61738702141789     -0.45278592221921
  F           4.86571739089207      1.54758782424178     -2.23159158957980
  H           3.08252383467507      1.81274532660750     -3.06971110892167
  H           3.79688668232267      2.86910031716393     -0.27741039323475
  H           1.61283606826468      3.63440147803721     -2.28662350122483
  H           2.01152477167797      4.48861141037135     -0.71812274320558
  H          -0.11474941096193      0.01133210520899     -2.67987363863969
  H           1.42457391081029     -0.24032586383785     -3.42494106490737
