16
Coordinates from ORCA-job P E -21.970956983540
  C          -1.36643419647301      0.43823538541792     -2.32042717934086
  C          -0.02653283373889     -1.56873022375305     -1.06181698100002
  C          -1.39865952443029     -1.85392192316164     -1.58180234825927
  C          -2.05499275724958     -0.88058241647403     -2.19449648020077
  C          -0.80104445826049      0.87749926033159     -0.96472460461827
  C          -0.02753703654933     -0.25464223102323     -0.26350674567456
  H          -1.82345536357268     -2.83536442213562     -1.44444085649069
  H          -3.04994604166187     -0.98953876998923     -2.59277350225245
  Cl         -2.48039592916076      1.69680843966247     -2.93398188397646
  H           0.33563396332171     -2.38066074769178     -0.43138651478595
  H          -0.55864185424298      0.37423560371397     -3.05830458656738
  H           0.66117868377205     -1.46885063864685     -1.90755600882735
  H          -1.64036373031346      1.18871109456957     -0.34124197483196
  H          -0.48414581803165     -0.44855447346237      0.70766407586771
  H          -0.16120256815402      1.74786307390751     -1.11383076418797
  H           1.00404946474526      0.05071298873477     -0.08617364485374
