16
Coordinates from ORCA-job R E -21.875092836980
  C          -1.51605324605576      0.11270211175375     -2.98105982265762
  C          -0.02956385506092     -2.17614211446799     -1.70566004542191
  C          -1.34949461430729     -2.02195181240913     -1.74838079871816
  C          -2.07338843435505     -0.92568136313984     -2.36218110473281
  C          -0.61940256622200      1.38593549337378     -0.12143253925275
  C           0.01144999920966      0.37999268967162      0.44698326096046
  H          -1.97837662759706     -2.76864716259299     -1.28139134614141
  H          -3.15130033364617     -0.97223891845936     -2.29036765422565
  Cl         -2.44593923780431      1.38073740822492     -3.66429407191447
  H           0.41735306921443     -3.02412323801704     -1.21666660303820
  H          -0.45407073347925      0.24621587435978     -3.10301976060608
  H           0.64963445430387     -1.47148003972233     -2.15141288556762
  H          -1.67699692848495      1.54384949043450      0.00917965206982
  H          -0.49903661240356     -0.33532857031430      1.07003483877331
  H          -0.10936856757843      2.10375127821419     -0.74265968200593
  H           1.06969423426682      0.22235887309044      0.31847856247902
