16
Coordinates from ORCA-job TS E -21.863866526180
  C          -0.59650813004661      0.69126730929947     -1.34176171235119
  C           0.84748335553423     -1.38905964691973     -0.01025257414441
  C          -0.47866791479069     -1.48387324765954     -0.28882820049419
  C          -1.19410271708637     -0.46019202487359     -0.94802136615424
  C           0.16422658001436      1.39574131669032      0.79094531963209
  C           0.80794625863401      0.36411819428439      1.38199178223952
  H          -1.06261724482277     -2.26647575831162      0.17501245800338
  H          -2.27275240439426     -0.52184572250840     -0.96124337023583
  Cl         -1.52663931630682      1.99738255580662     -1.97262217323440
  H           1.32685861642216     -2.14866233999244      0.58570640403553
  H           0.44941629797008      0.77231716239070     -1.57731309010214
  H           1.50605234450811     -0.80211713115851     -0.62353817346674
  H          -0.86678392155742      1.60632370536681      1.01299954272694
  H           0.30596140967751     -0.24055043947845      2.11753676055895
  H           0.70638091661541      2.16646728902954      0.27124942643654
  H           1.88374586962907      0.31915877803444      1.38813896655021
