19
Coordinates from ORCA-job NEB_product E -48.114541343410
  C           2.30960886838427     -1.86288601824054      0.24469834694223
  C           1.46257621358906     -0.72152889082576      0.76256903582173
  N           2.12192315078792     -1.89085140822771     -1.25616696188927
  H           3.37092906205602     -1.69065959228741      0.44566287514001
  Br          2.36940151201157      0.28016961948696      2.16549777470202
  C           1.80138996491081     -3.17486671730949      0.87519292715466
  C           1.36542356320344     -2.96771060135220      2.30460485790205
  C           0.10452979616407     -3.03167172766223      2.68689446437423
  O           0.37910389256169     -0.41458967642488      0.41867352225519
  C           2.87836413482201     -4.26311560436546      0.80141602351557
  H           0.93970035473105     -3.50828779430560      0.28098035703795
  H           2.15745060338259     -2.75851070206243      3.00873256710698
  H          -0.17800151199080     -2.87052002444701      3.71215131297199
  H          -0.69399862655470     -3.23959155019444      1.99393883366938
  O           2.99087627917200     -1.36442308357795     -1.89233487578260
  O           1.11429175866929     -2.38717620807364     -1.67074034854757
  Cl          2.22617483748189     -5.76474624802941      1.48873870258423
  Cl          3.36243078669600     -4.56544560604508     -0.89254032239304
  Cl          4.33232535992179     -3.79758816605571      1.71953090743428
