33
Coordinates from ORCA-job P E -41.392602432550
  C          -1.95341547206354      0.34755169536513     -2.31123401022344
  C          -0.20246525753332     -1.56893459734795     -1.41127398597102
  C          -1.64278042027216     -1.94031555261672     -1.56085720647836
  C          -2.49123590478501     -1.01136585051872     -1.97316631241406
  C          -1.01539457087706      0.85423831396965     -1.19839939466599
  C          -0.13617776677752     -0.26386287784314     -0.58630208475916
  H          -1.96028905826256     -2.93967620084665     -1.30733462287285
  H          -3.54881978845437     -1.19169189875761     -2.08966240906255
  C          -3.07966195203498      1.34146488340553     -2.56874879547773
  H           0.36247193366591     -2.33974064899610     -0.88931464851802
  H          -1.37084194682963      0.26243058020493     -3.23888050457337
  H           0.23497768544978     -1.43698867133580     -2.39852259604012
  H          -1.62725377445734      1.29062778606933     -0.40571317906293
  H          -0.60515872784218     -0.54256501146589      0.36440463985849
  H          -0.39702185765601      1.65580816501730     -1.60049125124194
  N           1.23167058320259      0.10063423721063     -0.22698772662690
  F          -2.57447884278884      2.54650963130627     -2.99844341205576
  H          -3.65086242875122      1.54740831376540     -1.65715218069659
  H          -3.75091972250219      0.98665735351251     -3.35834700613619
  C           2.05077507175989      0.87505603264815     -1.16516493067449
  C           3.52455587649492      0.77700738127653     -0.74376228621658
  C           1.96010711186305      0.39827257695518     -2.61302474657459
  C           1.27742976559528      0.70266173026006      1.09385129298964
  H           1.75952900152111      1.94419645422330     -1.13781314204911
  H           3.76802536559459     -0.25753527678176     -0.51695096580992
  H           3.74634393302655      1.39070172726551      0.12410804840571
  H           4.16212500560714      1.11550574954266     -1.55648027151272
  H           2.28872687920400     -0.63469357605170     -2.68866024326916
  H           2.61879106318661      1.01248468562378     -3.22423359166752
  H           0.95849248206262      0.49355375218145     -3.01704888155232
  H           0.68479848539131      0.10814033957026      1.78663329918269
  H           0.89569634044888      1.73575967100416      1.10495311224799
  H           2.29947090781371      0.70947910218430      1.46282999351890
