33
Coordinates from ORCA-job R E -41.322782061040
  C          -1.72272956914702     -0.58721821220666     -2.78974612154029
  C          -0.09130948479300     -3.09256343148348     -2.33749999527741
  C          -0.95231306235775     -2.54724663028660     -1.48386432999000
  C          -1.63620967743118     -1.27737298451925     -1.65393241251965
  C          -0.97570706285613      2.64021533977227     -0.49513113529115
  C          -0.46215822703488      1.61903903421767      0.19298729884756
  H          -1.17301505687534     -3.06370095339566     -0.55792272070381
  H          -2.11933415447907     -0.88161869092689     -0.76958988752625
  C          -2.44009749280131      0.71621751753549     -2.90811137477678
  H           0.37658014198896     -4.04036986589694     -2.13609580998308
  H          -1.27815737162226     -0.94555843271586     -3.70645457258325
  H           0.18272343085012     -2.61284065187368     -3.26109505864456
  H          -1.94397291587968      3.02612686686551     -0.23176053973449
  H          -1.07041832458632      1.16629691146004      0.96730595820055
  H          -0.45760874108670      3.15911598293789     -1.28134553159778
  N           0.78390248496782      1.05737556252529      0.11067075818569
  F          -2.10933475336105      1.34493421850553     -4.08606622595912
  H          -2.16968555850698      1.40240809574324     -2.09184782430144
  H          -3.52916632403192      0.57801489825466     -2.92687870988139
  C           1.73128419907216      1.51127762716187     -0.89117190522077
  C           3.16936148120919      1.43593679640723     -0.37303217155029
  C           1.59750498474681      0.75680764093715     -2.21778930587002
  C           0.96134717374097     -0.26730013525772      0.65336704352359
  H           1.50226190551783      2.56705642269201     -1.06309790842214
  H           3.53665524736617      0.41274208980941     -0.36324335779258
  H           3.23125350277656      1.84688772312950      0.63167428919748
  H           3.81724308515578      2.01840773852340     -1.02294808234936
  H           1.82881094561407     -0.29768651533913     -2.08412713511323
  H           2.28699915047705      1.17073161302523     -2.94905826283566
  H           0.58646933185357      0.84172212477925     -2.60619659006665
  H           0.29099330279212     -0.40240256644269      1.50125144748359
  H           1.98296059549891     -0.39280797995399      1.00853830921789
  H           0.74353681322243     -1.05192715398399     -0.08226813512520
