21
Coordinates from ORCA-job NEB_reactant E -29.164663762820
  C           1.36968151720769      0.28783559065875     -0.06511203714728
  C           1.09971150368913     -0.97159365616732      0.28447912399717
  O           1.16751468593655      0.77505402548895     -1.32976092848011
  H           1.76375036846839      0.98680836217802      0.66276693411711
  C           1.26027889599204     -1.44565944338322      1.70072800984846
  C          -0.80546129358606     -4.88935476696022     -1.66323309379530
  C          -0.63752862783822     -3.58503978154184     -1.56332781017167
  C          -0.20357457507576     -2.88085336925839     -0.31477124287215
  O           0.70982302317009     -1.86573541443591     -0.68313254719167
  H          -1.13704645363104     -5.35000007279196     -2.57748755848196
  H          -0.62850698281149     -5.55199650041172     -0.83143342070048
  H          -0.80690562299623     -2.92732270820688     -2.40334221862507
  H           0.25122142372659     -3.59357465279323      0.38705427477620
  H          -1.08819472250635     -2.43378250441858      0.16865059384787
  C           1.93315227251876      1.90619133490505     -1.65358275127680
  H           1.59634882710583      2.23701065565339     -2.63454013750741
  H           3.00222726559760      1.66796079512427     -1.70005870874431
  H           1.78233551776035      2.71368598833759     -0.92637910310189
  H           1.88780098890607     -2.33588033138469      1.73012049224512
  H           0.29743795489692     -1.69197140108874      2.14891290605442
  H           1.72733403346913     -0.66858214950332      2.29734922320973
