17
Coordinates from ORCA-job NEB E -34.390496044750
  C           0.53746145656589     -0.87506757099831     -0.83388466321121
  C          -0.77600845258196     -0.41603642708852     -0.65698171693043
  Cl          0.84790044238086     -2.53241815935721     -0.30737878799480
  H           0.99445248863811     -0.71742371393238     -1.80419508097208
  C          -1.23822230234495      0.70474473413777     -1.57959567884072
  C           1.52887412088663      0.14171817561592      0.43081656370114
  C           0.61291754846299      0.61746582505410      1.37401808181830
  C          -0.40407623658744     -0.33425353626784      1.77211488713000
  O          -1.30342395151628     -0.38996387389060      0.54973728599609
  H           2.08005431814179      0.88933316989803     -0.12733808574436
  H           2.14170156171385     -0.69789448894530      0.72987378224229
  H           0.28972573574789      1.64834695750990      1.30231976740599
  H          -1.09260549464150     -0.01299288204006      2.54824769444885
  H          -0.03600500394135     -1.34483356052701      1.95381930844468
  F          -2.54057170211774      0.98311593969829     -1.39247189226778
  F          -0.56149286872950      1.86516261853838     -1.31585502899589
  H          -1.08068166007729      0.47099679259483     -2.64324643623007
