23
Coordinates from ORCA-job NEB E -44.501032502130
  C           0.42293960736376      0.73466492281678      0.65186820956791
  C          -0.81329193421664      0.06890256466499      0.46734974387838
  C           0.39195399240038      2.24369755147598      0.55956998096734
  H           0.99777634588982      0.44960259447183      1.53035461341018
  C          -1.18124992571258     -1.13112398841283      1.30044366196949
  C           1.36829132406423      0.12814737720365     -0.86361402638951
  C           0.57769398546203      0.54201261839730     -1.94171631354593
  C          -0.76474798764887      0.04299979254439     -1.98018971121603
  O          -1.50618999540409      0.32731129143023     -0.60640575468963
  Br          3.18342213352461      0.75749405303811     -0.78296926742519
  H           1.37255120514311     -0.92355442067640     -0.60230945652596
  H           0.79401282242056      1.48362932687722     -2.42155143909893
  H          -0.85947618272616     -1.04099628542341     -2.01739731552370
  H          -1.40719913861398      0.52501280580154     -2.70897190018235
  F           1.59748377159483      2.81078006179010      0.68079002092076
  F          -0.16101609500386      2.74609477218541     -0.54389442044855
  F          -0.33424734645021      2.72454569634117      1.59342725256484
  C          -0.24552299873698     -2.32878881399506      1.10633746504200
  H          -2.19801513033408     -1.41793296639514      1.02921232280066
  H          -1.17447620319354     -0.84208074997095      2.35331997900150
  H          -0.24247383885165     -2.65762268481196      0.06952492965525
  H          -0.58937839572326     -3.15658713127063      1.72074765793633
  H           0.77115998475258     -2.08620838808233      1.40607376733113
