23
Coordinates from ORCA-job NEB_product E -44.547573904030
  C           2.70385801898280     -1.10812473867523     -1.06204138855583
  C           1.40068329235115     -1.94180942886271     -1.08540204329694
  C           2.35666475749972      0.29477516193619     -0.56733145437556
  H           3.38918150306058     -1.53146385704870     -0.31971894257834
  C           1.04689872996968     -2.60215506455792      0.21873796207206
  C           3.35579589750026     -1.11241686431861     -2.45303534127385
  C           2.83546725914961     -0.08947155448190     -3.40374762607142
  C           2.17391840899056     -0.40696427360837     -4.50083498533669
  O           0.77209199722943     -2.07851966711641     -2.09718307031884
  Br          5.31726628757187     -0.87566654515524     -2.25135088352261
  H           3.24289555488669     -2.11308081640164     -2.87743593340489
  H           3.05137152798135      0.94161856400265     -3.16106836146944
  H           1.95397013344784     -1.42969231006183     -4.75728438160028
  H           1.80620695180998      0.35000942889081     -5.17033449616325
  F           3.36672249889666      1.16019526349467     -0.68898122965777
  F           1.30618217810804      0.83439772278373     -1.19485761602016
  F           2.04162776429592      0.27443439831074      0.74031691537258
  C           1.83554704443270     -3.91144997695833      0.34741408468645
  H          -0.02025288989053     -2.82712239668130      0.20932756133452
  H           1.27311645951804     -1.95110379153283      1.06244995771946
  H           1.62105262016945     -4.56508341565589     -0.49455811860428
  H           1.54610163357334     -4.42021765541497      1.26248913787285
  H           2.90703237046489     -3.72848818288691      0.38213025319220
