23
Coordinates from ORCA-job NEB_reactant E -44.541206396480
  C           1.60539873754093     -0.30460920320281     -0.17676025514922
  C           1.32568909982803     -1.45710997292038     -0.80404400277096
  C           2.01536143720682      1.02563811840289     -0.69505010066493
  H           1.49272624547659     -0.29112754639946      0.89518085547177
  C           0.90921099115918     -2.65111730734562      0.02027300643910
  C           4.17461354880064     -1.71807430297123     -4.13524115411303
  C           3.49119636574596     -1.32574054348833     -3.07613313075439
  C           2.01453119784483     -1.06368405811830     -3.10976711677814
  O           1.34761760608377     -1.80294331126078     -2.09747179802254
  Br          6.03205958926834     -2.04383895249455     -4.08279554897324
  H           3.74325264008798     -1.86968179909241     -5.11211472383306
  H           3.97782394121756     -1.18983089841673     -2.12103902440479
  H           1.58284705814608     -1.42811847791376     -4.04593650831324
  H           1.81221068493256      0.00722167432343     -3.03720723266408
  F           3.21833732393303      1.05326062726179     -1.31478860694111
  F           1.14751865305071      1.56531618547837     -1.58458219386823
  F           2.10554335910461      1.91170818686772      0.30609870747391
  C           2.13561611200020     -3.49489715666863      0.37184035541212
  H           0.21940377391908     -3.24864278003700     -0.57597703903719
  H           0.40595606120324     -2.32637217889420      0.92913213812781
  H           2.63825731043120     -3.82742827204373     -0.53295303301139
  H           1.83453702208699     -4.37008091283332      0.94093401495240
  H           2.83739124093166     -2.91704711823297      0.96830239142245
