19
Coordinates from ORCA-job NEB E -42.266505269070
  C           0.92335247131219      0.24975418963579     -0.40892564582397
  C           0.08819831751596      1.14223494765633      0.30340807348280
  C           0.66196843780237      0.06360628834802     -1.87744831794617
  H           1.99265672387298      0.32662215440208     -0.23599285727862
  N           0.59878324673235      1.81315817990820      1.38903957371050
  C           0.34408286973548     -1.43817983381001      0.42519179438277
  C          -1.03675389850127     -1.44462365336186      0.25256016025538
  C          -1.76068083346091     -0.37430293968174      0.84037284389776
  O          -1.19382528969193      1.04694468706218      0.20862737481413
  F           1.07158946293199     -2.38330447847214     -0.19392533963591
  H           0.77848119855426     -1.22268326960694      1.40016335297564
  H          -1.43312850532036     -1.92957553738075     -0.62512440055349
  H          -1.56249780297085     -0.17498999283158      1.89019754560757
  H          -2.81081365448333     -0.31254227109825      0.58842698056379
  F           1.41862347826528     -0.89969307096584     -2.41631172418982
  F          -0.59989542761228     -0.19702203069436     -2.21459369163527
  F           0.99523006277754      1.19583851364142     -2.54909570372570
  H          -0.03868622757756      2.44168410578181      1.85182625402253
  H           1.56331537011808      2.09707401146764      1.37160372707607
