19
Coordinates from ORCA-job NEB_reactant E -42.294807136980
  C           1.76384319042086      0.03610807211937     -0.02159268948944
  C           1.24748328550438     -0.46611360944914      1.11855364315658
  C           2.01378078974533     -0.82650189412652     -1.19793224258453
  H           2.02219493480072      1.07208027740794     -0.12612615872605
  N           0.88133824702782      0.32728510284616      2.17996727343192
  C          -0.16580097998943     -4.74371614314409      2.45179688333672
  C          -0.30303440885133     -3.64668283216805      1.73284542550116
  C           0.15764255273264     -2.30190659782467      2.19482753101385
  O           1.03250107460621     -1.79003193777124      1.19909934429479
  F          -0.60336690070693     -5.93077536926604      2.01893290308188
  H           0.27001433870262     -4.81174597432031      3.43918641706715
  H          -0.73718216225560     -3.68642949898832      0.74568811334839
  H           0.67949108257888     -2.38857528143895      3.15806372634172
  H          -0.70513021158480     -1.63173402315254      2.30801083704857
  F           2.98591241904789     -1.74681490786681     -1.00620332286427
  F           0.93387467103790     -1.53076526783852     -1.59597630511444
  F           2.40054257878405     -0.10427333007364     -2.26308667158529
  H           0.98368012991900     -0.06911765165392      3.10132076835996
  H           1.18321536847978      1.28541086670931      2.11162452438132
