19
Coordinates from ORCA-job NEB_product E -42.321609860140
  C           1.65160272182366     -1.63793098963361      1.09180747882194
  C           1.12794879159893     -0.41170065117197      1.87718209521451
  C           1.34140049521547     -1.49935501463535     -0.39390914701072
  H           2.74402040771145     -1.67632332662787      1.18529882264121
  N           1.62097221704653      0.76707989545246      1.45890143484915
  C           1.08289124025199     -2.94316853473705      1.69283816554115
  C          -0.25350769910543     -3.33886077423400      1.13490185608499
  C          -1.39672401685695     -2.89941495885974      1.62351252604049
  O           0.37412732686981     -0.51994228055986      2.81100155598064
  F           2.00113313051021     -3.94689400833624      1.46108456490823
  H           1.03009474153028     -2.81333218532912      2.78112959153724
  H          -0.20633410259665     -4.01615739505535      0.29402594502799
  H          -1.42660770601431     -2.22107992573043      2.45950873297034
  H          -2.33827384377942     -3.18874398583536      1.19162590401384
  F           1.51975399997168     -2.62520395150375     -1.08262382066562
  F           0.09156656664735     -1.08397167788379     -0.63685804970734
  F           2.14902619304589     -0.58228701116118     -0.97500011584876
  H           1.28875634649694      1.60033329494911      1.91785223964171
  H           2.21835318963258      0.87345348089309      0.65802021995901
