20
Coordinates from ORCA-job NEB_product E -43.336816451620
  C           1.33935846914032     -0.85337816120403      1.34117757693807
  C           2.66519348540598     -0.80728415278537      2.14536135753387
  C           1.40082995251065     -1.15790433358335     -0.14398304789457
  H           0.96346016558422      0.18186441773392      1.39963912165277
  C           3.85381841245112     -1.64752908531816      1.71734895480311
  C           0.34267017056666     -1.66252130675963      2.21060423088968
  C          -0.99583994981673     -1.92454510173597      1.61118372465213
  C          -2.09739916496170     -1.34133966285160      2.04953638349465
  O           2.69104750224972     -0.12267289287241      3.12677759641578
  I           1.10966044095961     -3.58802586095184      2.92970342939063
  H           0.23038962913891     -1.08524634458326      3.13104054149823
  H          -1.04108876638509     -2.67196380478084      0.83096883405026
  H          -2.08106632387955     -0.61518740171471      2.84575295733090
  H          -3.05686796053323     -1.56251257476368      1.61767133184730
  Br         -0.27048410739802     -0.60885150587057     -1.04212019643459
  Br          2.77835497418720     -0.03085623713146     -1.00507907963969
  Br          1.73677593173653     -3.00752432710270     -0.61659000035903
  F           4.79003802959792     -1.62840854492518      2.70423043758534
  H           4.33073454490269     -1.22943694320624      0.82316919430236
  H           3.58781456454279     -2.69527617559293      1.54260665194281
