20
Coordinates from ORCA-job NEB_reactant E -43.343959968670
  C           1.32634580590002     -0.61919287115958      0.03506509861304
  C           1.95565314206738     -1.37869454280782      0.95108243677917
  C           1.94345147434653      0.01944409116356     -1.13611625278270
  H           0.26971037712491     -0.42814276571113      0.14299354949262
  C           3.42604300176065     -1.72577246389216      0.90364912080632
  C          -0.97584910040695     -1.93563169720120      4.53292541091885
  C          -0.34822808260114     -2.48705887582001      3.51281432466008
  C          -0.00995454009040     -1.73537050388417      2.26190037886062
  O           1.36934867157044     -1.93934980210605      2.01059552411817
  I          -1.48247242930697     -2.99234965975218      6.27060466663620
  H          -1.29810374318745     -0.90761427245719      4.54832383835492
  H          -0.02483340637918     -3.51688971846478      3.52828109349990
  H          -0.22502476818684     -0.66527126874573      2.37743835831901
  H          -0.60167680244563     -2.13261058625121      1.42320345157076
  Br          0.59136676709216      0.92544374042829     -2.20743867346824
  Br          3.29580215179564      1.40469399009676     -0.64207504602150
  Br          2.86204998025936     -1.25589886309762     -2.34355788022024
  F           3.81956202582312     -2.29743574589118      2.07422006954135
  H           4.04583403755180     -0.83367492716703      0.75665740651348
  H           3.62757543731254     -2.45342325727957      0.10703312380821
