19
Coordinates from ORCA-job NEB E -40.112919061880
  C          -0.39775331948405      1.31156125816800      0.27677886976768
  C          -1.68766418723556      0.73122503125840      0.24352909368998
  N           0.17265552731147      1.79658136636890     -0.86949742808812
  H          -0.09839181279227      1.80593680222829      1.19258282845840
  Cl         -2.40771600072936      0.46836575622756      1.85092649706653
  C           0.47153594805224     -0.56503554986252      0.50867130128935
  C           0.01735789755855     -1.23533981571494     -0.63131183355213
  C          -1.32060085070307     -1.59722720452459     -0.73063809450378
  O          -2.11261680982285      0.06004818238401     -0.71079378002731
  C           1.92953478536190     -0.32103584800898      0.67238072964436
  H          -0.01125705701917     -0.79287313165040      1.45562128726376
  H           0.60681221863768     -1.17375684289725     -1.53613369031861
  H          -1.84442997852416     -1.93459192045484      0.15261345312865
  H          -1.68673722108024     -1.99865798988305     -1.66152720412997
  H           0.70476468844586      2.64687263751519     -0.82930789688467
  H          -0.30454209485785      1.60106246528661     -1.73409245277926
  Br          2.80693071427975     -2.04943772717214      1.14081163659766
  Br          2.82119582319616      0.33659268378951     -0.92118603079291
  Br          2.34092172940498      0.90970984694222      2.13057271417038
