19
Coordinates from ORCA-job NEB_reactant E -40.137782307310
  C           0.94721833629679     -0.23647385042761      0.51675659956290
  C           1.98072114304859     -1.08085752300104      0.54696205684376
  N          -0.15723161268530     -0.39447865903562     -0.29859965793788
  H           0.97158037379352      0.65878121731445      1.11649803673956
  Cl          3.39833967266200     -0.69426869412680      1.49562160407466
  C           4.07323623355894     -3.82514478028001      0.95164225202003
  C           4.21810627732533     -3.26322065497012     -0.23742448934571
  C           3.11632165589996     -2.52841647685571     -0.93738308975437
  O           1.98897002199485     -2.27356595773623     -0.11659957210321
  C           5.10681430905438     -4.55366210806866      1.70899484752188
  H           3.12337080178566     -3.75979530745645      1.46964948744295
  H           5.14850372525102     -3.30935812675825     -0.78611303242502
  H           2.75113544784805     -3.14701102094175     -1.76638169126134
  H           3.51050289953792     -1.59395431361128     -1.35542033554025
  H          -1.02488106578173     -0.05307428950805      0.08480672424130
  H          -0.23359254089838     -1.31483639462501     -0.70687092924472
  Br          5.40695353353910     -3.66267247344870      3.44434504661843
  Br          4.47531801424254     -6.38709278736675      2.08091611575906
  Br          6.82211277352672     -4.69699779909642      0.81490002678800
