19
Coordinates from ORCA-job NEB_product E -40.151986641090
  C           3.01695892890729     -1.19257241695518      0.48745782243441
  C           1.55348992455869     -0.93958330468751      0.82229822311012
  N           3.34369016195189     -0.79114655125903     -0.85445761446695
  H           3.63114948414683     -0.62077518328193      1.19412343803890
  Cl          1.17286301507271     -1.20704261596902      2.52165123415643
  C           3.29007117249609     -2.70525958970909      0.71407232607822
  C           2.35257362343931     -3.55061039505066     -0.10278693121450
  C           1.49998161184500     -4.40505248918813      0.42976760793432
  O           0.71520749620002     -0.59732813459541      0.05875063103640
  C           4.73403677247735     -3.08572256946294      0.41860367847047
  H           3.11907598432828     -2.90764519212659      1.77913315517244
  H           2.41845063901998     -3.42556933854575     -1.17450400878915
  H           1.42440376035400     -4.55035043913469      1.49507851954088
  H           0.84132005888983     -4.99518430298840     -0.18232006408761
  H           3.44762895089977      0.21265519994543     -0.93097477658935
  H           2.62701996751661     -1.08168818971523     -1.51112965030516
  Br          5.00998516031212     -4.94078199681249      0.98520212703330
  Br          5.22544819819293     -2.98073035223346     -1.44829079188052
  Br          5.98624508939131     -1.98461213822990      1.43212507432737
