16
Coordinates from ORCA-job NEB E -32.008466915110
  C           0.23332899265623     -1.02937555859511      0.93017850786131
  C          -0.35236326082643     -1.54765122539339     -0.22507346981854
  C          -0.61051594822601     -0.59815935036084      1.97985533640480
  H           1.19232827873244     -1.43096352905897      1.23681696817493
  F           0.46959825383982     -2.35328480699945     -0.96225795024617
  C           0.63621162848916      0.93265762292610      0.17055605338492
  C           0.06275148960365      0.94386042919027     -1.09810559305328
  C          -1.29987512452860      0.66932105472653     -1.21235908696073
  O          -1.35627061871183     -1.10737139888660     -0.80413644681713
  C           2.04546774117969      0.98780001137903      0.30840240865013
  H           0.08554709423572      1.36855462970501      0.99702144817791
  H           0.70389604996878      0.75987315979222     -1.95144562847112
  H          -1.75060791090846      0.60908359514613     -2.19092035430899
  H          -1.96557522336443      0.97871374041107     -0.41739366175082
  N          -1.27864345775419     -0.20960595752556      2.82482727356201
  N           3.18472201561447      1.02654758354354      0.41403419521078
