16
Coordinates from ORCA-job NEB_product E -32.057084620840
  C           2.24019605303714      1.25521941327421     -0.14548876861359
  C           2.59919869153628      0.18168894950577     -1.15051855764500
  C           0.85107949177127      1.07133871281194      0.22925389452706
  H           2.85837617930058      1.10197104982080      0.74963277521302
  F           2.81656958192702     -0.99029230244567     -0.50489607376017
  C           2.43819211710252      2.69137363259043     -0.70280397430419
  C           1.49936057721690      3.00049120678070     -1.84385982816225
  C           0.56474731946546      3.92743335129662     -1.76932069665791
  O           2.69120708746131      0.24269658639966     -2.32043955490354
  C           3.81127522071091      2.84211103415191     -1.14144120427405
  H           2.26320213517214      3.40217382053072      0.11551361705258
  H           1.64373770827739      2.41050327125427     -2.73671127746469
  H          -0.09403014709090      4.12550636843247     -2.59606869056207
  H           0.41360386914229      4.52416398137116     -0.88401728093711
  N          -0.24646922313793      0.95975193738499      0.51869631347836
  N           4.89395333810760      2.96746898684000     -1.48073069298645
