71
Coordinates from ORCA-job A2R E -96.592991403830
  Ru         -0.56651223520316      2.13292550783963     -0.32037311577732
  H          -0.65981537353073      0.71676240936587     -0.94785863005388
  N           0.72751623882067      1.29332562115031      1.06799010350108
  C           1.97564278457949      0.93737554873435      0.71177003359243
  C           0.35765083013997      1.11324087455646      2.34920031128825
  C           2.88644457479599      0.42654425220086      1.62442711871831
  C           1.22436663060395      0.60088133101075      3.30272965340790
  C           2.51515571091960      0.25347002717920      2.94577275738233
  H           3.87810359474436      0.16081488971772      1.29148980692729
  H           0.88091595950493      0.47667960462471      4.31783338657900
  H           3.20368631672115     -0.14826956872496      3.67045199210817
  P           1.37373498656221      2.46084925879327     -1.47899566010315
  C           1.53058367568541      2.07913377192748     -3.33376396247029
  C           2.45395067020298      3.98518327113797     -1.07786996566397
  P          -2.07943157132413      1.61130585355791      1.23396475206303
  N          -3.32548026443452      2.58828415008117      1.86165446569918
  N          -2.83414659660556      0.10168399717269      1.28152552938371
  C           2.36016882203316      1.08632869925160     -0.72720208259750
  H           2.03298555508102      0.18305590695602     -1.25667857552662
  H           3.44174400251219      1.19212416829401     -0.84543777264851
  C          -1.02366218427437      1.53169402634633      2.74698421238084
  H          -1.44682268498510      0.87194870314788      3.50949820564946
  H          -0.98473038610627      2.55061145013437      3.15098672618416
  C          -1.74629095487207      2.85284816437168     -1.53396140569770
  O          -2.52620199614834      3.29202984901895     -2.27254418468576
  H          -0.45299915929461      3.49435517961490      0.43138006188353
  C           2.88678957432618      1.52345233132936     -3.77044054323249
  C           0.46598366698464      1.02851553742409     -3.65381210483300
  C           1.17525143706501      3.34196481301557     -4.11961941151133
  H           3.07769992074090      0.55424331751767     -3.31510432293008
  H           2.87475887569156      1.38504595257685     -4.85176925855443
  H           3.70915494987476      2.18788811050354     -3.53196530863919
  H          -0.52709852182992      1.41631973103554     -3.43354523544322
  H           0.51310886362750      0.76596770632826     -4.71068285501433
  H           0.61189208475561      0.12376608601473     -3.06859277198408
  H           0.28378467082633      3.80156369752484     -3.69009883529547
  H           1.98675994473402      4.06473633311447     -4.11915865886521
  H           0.95928002947882      3.08580962481719     -5.15670099954305
  C           2.69713338714703      3.94241816245363      0.43446758246267
  C           3.81223260352072      4.06725347924971     -1.77089436241859
  C           1.62641861292576      5.23356279780819     -1.39039553918546
  H           3.38686693894798      3.14722748384005      0.71280133551391
  H           3.12614562521107      4.88793925302960      0.76565474613107
  H           1.75688508019231      3.79927208782507      0.96587472860924
  H           3.71575513785899      4.23389392279668     -2.83979693200536
  H           4.36359632673270      4.91211274510609     -1.35700185074560
  H           4.40620173825120      3.17150756461573     -1.59894160054590
  H           1.58814220537254      5.44040629699038     -2.45545862470286
  H           0.60761381283158      5.09783151142972     -1.02692730230945
  H           2.05643239587266      6.10327142551817     -0.89459052035088
  H          -3.64868177271898      0.07653272197058      1.88781503929877
  H          -3.05039887499769     -0.24042697256796      0.35256784326002
  H          -2.96811160993046      3.52509983697500      2.03144603628707
  H          -4.07918304638544      2.67273807038703      1.18169245572693
  C           0.71748962991998     -2.36733358152295      1.78464687524278
  O           1.66067144998655     -2.38016981200757      2.54921118215646
  C           0.91948466901680     -2.36493466068240      0.31500889328718
  C          -0.12632571726082     -2.26370422234530     -0.60064310179793
  C           0.13436130262648     -2.28961575152024     -1.95839240655962
  C           1.43556436210709     -2.40822201843743     -2.42064057734948
  C           2.48465053264228     -2.49877403072237     -1.51799677139474
  C           2.22666884195909     -2.47917650066671     -0.16180076727282
  C          -0.70155317137241     -2.35373102651535      2.28471355217335
  H          -1.14420828654682     -2.16110662614076     -0.26193993285950
  H          -0.68127443817820     -2.20899209326522     -2.66161986101212
  H           1.63222665915083     -2.42744494294438     -3.48304482765938
  H           3.50054692173404     -2.58860300932751     -1.87541498151981
  H           3.02717443958287     -2.55686634046068      0.55916759075839
  H          -0.69997381764118     -2.39599597530776      3.37124487811234
  H          -1.24993748898667     -3.20616256613517      1.88986014754096
  H          -1.19833689197541     -1.44036741808912      1.95744361745028
