71
Coordinates from ORCA-job A3R E -96.561420778630
  Ru          2.19504201079170      3.32674618740677     -0.22707417730164
  H           0.78185486609634      2.11581455993425     -0.32780564791111
  N           2.45784967321318      2.20505589711107      1.52161451898786
  C           2.81222298166482      0.88496115177901      1.36864965352646
  C           2.11506419404724      2.66966581750019      2.72800296140733
  C           2.74372797292650      0.02127159186447      2.50038280868011
  C           2.05911383075780      1.86710995482104      3.84917583071563
  C           2.37354573290770      0.50733650273908      3.71825597340276
  H           3.00077834256694     -1.01840857696422      2.36348199126393
  H           1.78098861394756      2.28301571471154      4.80356418847346
  H           2.32618688050696     -0.14121852081452      4.58098540883706
  P           3.58985676791695      1.67087561963559     -1.07131775753255
  C           3.28030649814463      0.95515539583825     -2.80180379582457
  C           5.46747770080299      1.98991043412579     -0.85127367387837
  P           1.11519754277344      4.71956485757412      1.22485897736027
  N           1.50202825521841      6.37300093896080      1.37073997745445
  N          -0.53293782549422      4.74616354107791      1.58756734922044
  C           3.16910713179920      0.41285663974701      0.10214558631801
  H           1.21574155276153     -0.06694619348609     -0.20208800831115
  H           3.56634635716124     -0.59051740394194      0.01299670347505
  C           1.81310335713579      4.13720400338780      2.82650942037995
  H           1.13776668064210      4.35898332947094      3.65598159524057
  H           2.75039934868830      4.68526207849945      2.97947335990600
  C           1.94663553794323      4.30699075713199     -1.76391856925272
  O           1.81539283975900      4.98893540111804     -2.68974376368008
  H           3.39661426474193      4.21244804931418      0.08025197149440
  C           3.60224711419850     -0.53518558839827     -2.88759053717489
  C           1.79021068748827      1.14402573690101     -3.10387331145566
  C           4.05855925406230      1.74822288453855     -3.85022174456600
  H           2.95870490649781     -1.10308832333218     -2.21959993019210
  H           3.42024251654851     -0.88378393354839     -3.90407191985037
  H           4.63754672165206     -0.74599897479819     -2.63885102801628
  H           1.50310531833971      2.19357543110478     -3.00869244453122
  H           1.58178935378551      0.83428766840110     -4.12779139836099
  H           1.16770936239339      0.54068900269191     -2.44890655889189
  H           3.90990288248932      2.81642287008700     -3.69522871421022
  H           5.12125222442331      1.52613290375937     -3.82367496721964
  H           3.69377658258160      1.49530457445610     -4.84584743387464
  C           5.65628266410847      2.21556640636044      0.65188900282001
  C           6.33690207262369      0.80305079447977     -1.25995882841787
  C           5.88975071900846      3.26614479502030     -1.57907484335605
  H           5.43104365141242      1.31339618242608      1.21778267513525
  H           6.68775034476771      2.49769116812496      0.85961705026565
  H           5.00458620209886      3.01773421804118      0.99982440450774
  H           6.35342180999150      0.65693386947722     -2.33651043187808
  H           7.36259510766839      0.97789498522523     -0.93438590235890
  H           5.98537108402831     -0.10994657540192     -0.78184819185088
  H           6.02928122316448      3.10595074398320     -2.64278331450557
  H           5.13198397495772      4.03839807185109     -1.43684046054742
  H           6.83228296560263      3.62919452261793     -1.17042174509806
  H          -0.76406997290207      5.48037460046503      2.25055982490620
  H          -1.14549794554542      4.78576771534226      0.78143472320642
  H           2.50994434698389      6.50015709753806      1.32547452960223
  H           1.09564690783214      6.90928594340189      0.60705138700090
  C          -0.09558541556418      1.37869478233161     -0.21818649134763
  O           0.31385752891415      0.08527596155581     -0.56725136608661
  C          -1.18789729401665      1.82990427863530     -1.15735500784532
  C          -1.26246161721212      3.13993166297370     -1.60506127797828
  C          -2.29602700297570      3.54349876504072     -2.43096803083259
  C          -3.26397124277391      2.63450810848044     -2.82255600250451
  C          -3.18996922585650      1.32219669011015     -2.38741831269909
  C          -2.16007753810185      0.92162074605940     -1.55627478116766
  C          -0.61931600419662      1.39679326292457      1.22412398905410
  H          -0.48941151327324      3.84896854081893     -1.32039216388413
  H          -2.33902239037902      4.56585432236718     -2.77752951806406
  H          -4.06878831013141      2.94716373099545     -3.47127894732299
  H          -3.93766864770929      0.60709023010579     -2.69739291092379
  H          -2.08769512861634     -0.10108427221084     -1.22039541536000
  H          -1.54038028925644      0.81771028849098      1.26540798825153
  H          -0.81989628956898      2.41084512041203      1.55955457213075
  H           0.10094719103534      0.93292126155078      1.89550090304110
