71
Coordinates from ORCA-job TSA2R_3R E -96.554898561950
  Ru         -1.09941427217160      0.51875351664015      0.24416544906803
  H          -0.44867782088693     -1.12322650259064      0.10322643682294
  N           0.09793856566911      0.47893057339344      1.96022389005575
  C           1.43993829003577      0.38356381337979      1.78329511570246
  C          -0.42405840623476      0.40342303073150      3.18691675022926
  C           2.28068281039086      0.19816361714749      2.89604424166142
  C           0.36399182614333      0.21801253159355      4.31205448502874
  C           1.74258629452646      0.11286901845975      4.15697927306413
  H           3.34450276975361      0.11429145931244      2.73633130626485
  H          -0.09247836223590      0.15814106442285      5.28678638565174
  H           2.37745186074191     -0.03368810547669      5.01804486474370
  P           0.87717468911296      1.29327338589321     -0.69678059824410
  C           1.41061881792208      0.77009804286075     -2.43928668714793
  C           1.30571339754738      3.13732417402676     -0.42777576859922
  P          -2.70655193903236     -0.05699160757765      1.75412477269865
  N          -4.17766265351352      0.79027616588978      1.89110385326405
  N          -3.19605573757135     -1.59567111935427      2.23312632917174
  C           1.95586101616136      0.37822231302783      0.43311724284681
  H           1.77937209528574     -0.93185048811284      0.06546171669780
  H           3.02647761029464      0.55748883295555      0.35319614809180
  C          -1.90998314674514      0.55096760522659      3.30715377440570
  H          -2.30065204392458      0.03061417987471      4.18449622882364
  H          -2.15890632493090      1.61563517290297      3.38878864555656
  C          -2.18435124293532      0.54717727692271     -1.24232391498483
  O          -2.93791722622897      0.59630335125298     -2.11837656807715
  H          -1.55987718838481      1.95450647949811      0.55840904953436
  C           2.91214788456919      0.50866549134860     -2.54167219951993
  C           0.67562621782422     -0.53579960811123     -2.75345926770019
  C           0.95395177079527      1.80700126711248     -3.46555159691381
  H           3.18985765053908     -0.33887193070030     -1.92010098471321
  H           3.15952625077415      0.26184840344832     -3.57380580665786
  H           3.50484056203952      1.37073787623059     -2.25181520218704
  H          -0.40506472172256     -0.40599925519247     -2.67359304360747
  H           0.90174874967098     -0.84788286040142     -3.77238397185153
  H           0.99291916829859     -1.33411678697126     -2.08649335525978
  H          -0.09131794035456      2.06432252113225     -3.29519849176352
  H           1.55681081397781      2.71020860805178     -3.43574782299023
  H           1.03948616840591      1.38764333608376     -4.46785208971387
  C           1.20230140935212      3.38482976262727      1.08022658714784
  C           2.71587199632419      3.51981252422816     -0.87108913956717
  C           0.25386943268082      4.00744379550473     -1.11764721105742
  H           1.97487151565426      2.84870098429205      1.62871710745694
  H           1.32136066972072      4.44788428305195      1.28770766762126
  H           0.22475315532234      3.07541713412234      1.45042386070352
  H           2.83248951175308      3.47800022459022     -1.95005950438895
  H           2.92467546223509      4.54244109237806     -0.55607833328601
  H           3.45779864984367      2.87106094607875     -0.40840076426017
  H           0.42506357187176      4.08911397084479     -2.18550458279425
  H          -0.73789327349063      3.58332898645106     -0.95309962169204
  H           0.27116830829682      5.01318905587186     -0.69928805181226
  H          -3.99110959914780     -1.56907834214272      2.86428219887262
  H          -3.35041463868238     -2.25406048711498      1.47911525907542
  H          -4.01966636671242      1.78629220337972      1.76088275500836
  H          -4.83364443444897      0.49218639301859      1.17217504888695
  C           0.09750994297875     -2.20285154941424      0.16611657646246
  O           1.37693823352195     -2.10180648494697     -0.23317745787879
  C          -0.72361337361555     -3.11180883817019     -0.72577598582951
  C          -2.05197158026369     -2.85864306183729     -1.03075327030355
  C          -2.77639402935302     -3.74133271980349     -1.81122856804179
  C          -2.17481447081033     -4.88839913439801     -2.30023143243813
  C          -0.84506936707995     -5.14253867714691     -2.01021650988100
  C          -0.12459442754976     -4.26097761369330     -1.22624153482062
  C          -0.02283447612998     -2.70068353955016      1.62172319976319
  H          -2.52031245749721     -1.94423215496759     -0.67497534049106
  H          -3.80959281828701     -3.52842888936229     -2.04670077753777
  H          -2.73909034851958     -5.57609344195317     -2.91316381599392
  H          -0.36713345156330     -6.03050062893069     -2.39793240055852
  H           0.91651115487433     -4.43832498521233     -1.00201569244348
  H           0.25028951505903     -3.75484134447335      1.64066790926513
  H          -1.03089988671314     -2.58576772957106      2.01114579240726
  H           0.67732021676914     -2.16369657808276      2.25956744295301
