71
Coordinates from ORCA-job TSA2S_3S E -96.553071890140
  Ru         -1.30244764302918      0.32967012520137     -0.57000255562432
  H          -0.72786295472663     -1.37753241044687     -0.44736330871710
  N          -0.34555498688461      0.39043429600830      1.28496813592737
  C           1.00771696696964      0.26003958551734      1.28673748286779
  C          -1.02036870242202      0.36168374797973      2.43716270479069
  C           1.69548496742754      0.12327767410779      2.50642616830205
  C          -0.38227179069768      0.23532867727105      3.66078761278559
  C           1.00220632427388      0.11359947450021      3.69039393470009
  H           2.76906206113041      0.01689733814191      2.48807789649589
  H          -0.96098203431832      0.22246777295074      4.57003447274952
  H           1.51953535329258      0.00962650367721      4.63216750355638
  P           0.79805719276007      1.03038288759044     -1.29434885731818
  C           1.55213362045500      0.42316355099981     -2.92589396654270
  C           1.22058971994635      2.88337345737942     -1.06223030015422
  P          -3.16597541960644      0.07350116127202      0.71131279653434
  N          -4.38581577525007      1.26152962510151      0.62707195835051
  N          -4.14233731639915     -1.27104145400902      1.02034698257974
  C           1.70316985841464      0.18415612481638      0.02322766638155
  H           1.55803458938484     -1.13884737011882     -0.35067321654546
  H           2.77655620803432      0.35418076695774      0.08334860650802
  C          -2.51556380322052      0.49687557044847      2.39063617739212
  H          -2.98471747101606     -0.13528358473252      3.14815419196435
  H          -2.79368820985369      1.53771148830637      2.59201178757035
  C          -2.19842248896614      0.16217756783797     -2.16892033410513
  O          -2.85561946613250      0.05201992232386     -3.11533493552299
  H          -1.70253969463685      1.80895120651304     -0.48858759485074
  C           3.03645379431671      0.08957932120528     -2.78976620340975
  C           0.80065719982715     -0.85540935908446     -3.30423577684580
  C           1.30941136187371      1.43289430071034     -4.04770305501519
  H           3.17166067379949     -0.75476488346346     -2.11869219686638
  H           3.42947523038179     -0.19158202706858     -3.76644572873259
  H           3.61748072756021      0.93078504517385     -2.42376972297141
  H          -0.26342093687658     -0.65296308169901     -3.43086412351464
  H           1.18656002266443     -1.24295073906764     -4.24651102319573
  H           0.93968843032920     -1.62315772489524     -2.54582163632581
  H           0.26462453239691      1.74146675754195     -4.05165558750483
  H           1.94459795878678      2.30978218348039     -3.96280084746128
  H           1.52595051740854      0.96330859846100     -5.00722743976551
  C           0.90583158643812      3.22113807569445      0.39858970211879
  C           2.69264672094220      3.20928312935578     -1.30701740317096
  C           0.31202233096619      3.73868056245004     -1.94708859250115
  H           1.57449549997132      2.70263776630585      1.08336968522757
  H           1.02504305620820      4.29195534166657      0.56182463863608
  H          -0.12333462003469      2.95425117877076      0.64071452097311
  H           2.97307705924591      3.09221928670769     -2.34941854654841
  H           2.87997880112918      4.24671870096430     -1.02921634763946
  H           3.33626578637084      2.57985629026474     -0.69489859106472
  H           0.65450826142782      3.77227215844363     -2.97544185422087
  H          -0.70236477594627      3.33825923164714     -1.92810336719466
  H           0.28452379933293      4.76128386823146     -1.57220191636219
  H          -5.03047212483638     -1.00394027261791      1.43522142842038
  H          -4.29045694622552     -1.86261606854176      0.21110762438879
  H          -3.96879797621891      2.18699692966854      0.56385713204665
  H          -4.95022085127774      1.13127104965446     -0.21034106473989
  C          -0.09366732392227     -2.40946980969312     -0.22258003202284
  O           1.15682256734255     -2.29327575718004     -0.69103438850201
  C          -0.14209614322010     -2.67101993150842      1.27495549653307
  C          -1.32655335476435     -2.64577307452287      1.99600291944715
  C          -1.33641607832097     -2.95614526031887      3.34333022869763
  C          -0.15967039284649     -3.29277338701631      3.98991508872417
  C           1.02622329968787     -3.32160707435672      3.27752918318865
  C           1.03390131645768     -3.01633023088477      1.92943943647250
  C          -0.87540664211818     -3.50483971851211     -0.96172156810419
  H          -2.25006933225402     -2.37868487666908      1.50386294390778
  H          -2.26869174308100     -2.93417969906996      3.89022871712966
  H          -0.16804347307513     -3.53272686334753      5.04341154048195
  H           1.94976814988582     -3.58602643730433      3.77219592305071
  H           1.95182086637145     -3.04772471647522      1.36084534916033
  H          -0.36747774885853     -4.45434886833044     -0.80179044775339
  H          -0.88984996583915     -3.29339053141351     -2.02850416902503
  H          -1.89485822633608     -3.57728308895224     -0.59106093822174
