27
Coordinates from ORCA-job R E -42.897171771050
  C          -1.41836617055903     -0.39748864751540     -2.84042378405451
  C          -0.59448935126285     -2.97499999636065     -1.51075991713602
  C          -1.83578495991021     -2.50664154843970     -1.63628281556321
  C          -2.24131100246907     -1.23245332147700     -2.17725547061911
  C          -1.16090261782317      0.27812844113023      0.29453821735716
  C           0.15428966658735      0.22599583076476      0.19145362011507
  H          -2.65403922215479     -3.12825393668581     -1.29065485761685
  H          -3.28207213607018     -0.97863436187922     -2.04117760887868
  N          -1.69613091984077      0.85657217615830     -3.29359822764429
  H          -0.40276539145905     -3.95046386513879     -1.09869129684823
  H          -0.39650374221363     -0.70052136577834     -3.01628456388965
  H           0.27096129723810     -2.41085402504789     -1.81312389510227
  H          -1.70539293605636     -0.53035162915404      0.74653633423965
  H           0.71601722584974     -0.62417382989877      0.55133104121266
  H          -1.73246234024783      1.11680298267471     -0.06178710879036
  C           1.01115164867247      1.27510293075835     -0.41905853360890
  C          -0.85393823207946      1.44947676213384     -4.29986579504229
  C          -3.02955971082739      1.39165494144794     -3.20499972115863
  H           0.15231894643463      1.04288953341649     -4.22579321582832
  H          -0.80388460255370      2.52912337735137     -4.14455210279965
  H          -1.23235838993122      1.26245068468964     -5.31307105866419
  H          -3.43656737688072      1.20117240878563     -2.21326075158263
  H          -3.70421689905556      0.95373744352205     -3.95139830273352
  H          -2.98947108053930      2.46920160967643     -3.36182459256999
  Cl          0.11489740557876      2.65226092824237     -1.05813451386330
  Cl          2.16892577055099      1.88674571090079      0.80871163965592
  Cl          1.96420512102226      0.56355076572272     -1.75192271858585
