27
Coordinates from ORCA-job TS E -42.885555479220
  C          -0.41647871558784     -0.26291272051718     -0.90658703780248
  C           1.05522042093922     -2.16750847062525      0.68259988907974
  C          -0.27217527394583     -2.30534807888001      0.40026405365882
  C          -1.00245884827910     -1.38358692010459     -0.36197921048783
  C           0.05482241339068      0.58269471941063      1.20852752476962
  C           0.95916279190933     -0.23265758978014      1.83065275614047
  H          -0.84208570229946     -3.04958577931096      0.94069809452749
  H          -2.07548073244437     -1.49654245841556     -0.38345563424360
  N          -1.05958156144522      0.69871082973223     -1.62082790468543
  H           1.52515654641264     -2.86632974011929      1.35446334407703
  H           0.65232076215045     -0.25538901482934     -1.04848891601183
  H           1.72259894008027     -1.66923783161589      0.00443792981083
  H          -0.97951418988937      0.54490163736673      1.49187202427991
  H           0.66194970094457     -0.83446230440929      2.67424063528566
  H           0.38567450285695      1.44406978631062      0.65916819718137
  C           2.39893095789954      0.13995858567781      1.83097728624545
  C          -0.33530441229315      1.88243777754301     -2.01197208061843
  C          -2.48889708839556      0.86265420863207     -1.50951050774142
  H           0.72845335104907      1.66369682368508     -2.07490769016151
  H          -0.48221385308494      2.70351441323737     -1.29955635361725
  H          -0.68050094990475      2.21481236298946     -2.99291293433901
  H          -2.78900844418655      1.19202189591630     -0.50809581781103
  H          -2.99080792458658     -0.07709791881659     -1.73510802127362
  H          -2.81704396122942      1.60642423765689     -2.23318430406529
  Cl          2.98373382069265      0.65224900786504      0.23655041913260
  Cl          2.64247903981454      1.55757995412846      2.94033361032815
  Cl          3.46104840943226     -1.14506741272760      2.43180064834158
