22
Coordinates from ORCA-job NEB_reactant E -52.458753340000
  C           1.86948902762817     -0.18642335047460      0.20237350014822
  C           1.45465603963055     -1.26760989303566      0.87704645377594
  C           2.09657674924815      0.00114304075974     -1.26627285959544
  H           2.05779792894060      0.70325773296022      0.77972517812010
  C           1.30350732080466     -1.14871282020987      2.39308155981703
  C           3.73782409858127     -3.40955044316921     -0.11413416429335
  C           2.75028029339545     -3.47123683490872     -0.99838112806573
  C           1.33941213355429     -3.05921937277957     -0.75495703408827
  O           1.11861568025876     -2.51212405344856      0.53088805070633
  N           5.06371060435276     -3.82719016104218     -0.46834288403733
  H           3.65852575960287     -3.04978154211626      0.90055275858378
  H           2.96019226892425     -3.85117158657075     -1.99032428593657
  H           0.70506992624343     -3.95376551677535     -0.77978214075399
  H           0.99426768877437     -2.39571995786027     -1.55283161214134
  F           3.04104845106999     -0.83747381478411     -1.77213090533470
  F           0.97170033517520     -0.24107263553310     -1.99769779881429
  H           2.41617404638192      1.02706176651013     -1.49579409840093
  F           0.08215882294894     -1.56026388959154      2.78470535963095
  F           2.20129099103515     -1.96114285643784      2.99732677151420
  H           1.46098887217617     -0.12752244647056      2.76845911104152
  O           5.23740718193933     -4.33529750192499     -1.55360632444065
  O           5.92730577933372     -3.63598386309695      0.35909649256454
