25
Coordinates from ORCA-job NEB E -48.499171493440
  C           0.64535001169697     -0.44935972286433      0.77742675999099
  C           0.57999341027639     -1.10437017707928     -0.45845112050558
  O           1.79900975647724      0.21475873127127      1.09399870295349
  H           0.10973444773941     -0.90828752951456      1.60158344565747
  O          -0.37460214873848     -2.07372931948353     -0.53004295758048
  C          -0.55678800032116      1.18823177723099      0.19431648035133
  C          -0.58793529673335      1.18926626770785     -1.19770594880235
  C           0.63904228491370      1.01295190460067     -1.86487354868022
  O           1.07312571477646     -0.61675230554914     -1.52799384599085
  C          -1.85099142090256      1.12432911870484      0.93969660189708
  H           0.18333215630142      1.82086302676598      0.66920131992043
  H          -1.48961784020855      0.85027942352342     -1.69074305518097
  H           1.50754202388999      1.49585846671468     -1.43370380947511
  H           0.64058170953480      0.98108009079901     -2.94500795275986
  C           1.94791646542550      0.55284371014678      2.45574808210441
  H           1.18923692120109      1.27104521635973      2.78153945876130
  H           2.93575568981039      0.99988147079828      2.54788249412448
  H           1.88847057694870     -0.33608453397020      3.09111381607205
  C          -0.69259744701331     -2.54954150463700     -1.82615330421321
  H           0.21227197205851     -2.84593309681792     -2.36159247895055
  H          -1.21487584053942     -1.78524569866838     -2.40602315112293
  H          -1.34174799432140     -3.40837117711830     -1.67438761187585
  Cl         -1.60675105336713      1.03804374836606      2.69681254592640
  Cl         -2.80785127535240      2.61220236417892      0.61636631432456
  Cl         -2.82760482355280     -0.27396025146584      0.45099276305398
