25
Coordinates from ORCA-job NEB_reactant E -48.531578968080
  C           1.23225092834241      0.09236692517425      0.00784322856562
  C           1.40142929464210      0.28533984624042     -1.30264630518507
  O           0.09456752396613      0.41551293682255      0.72440260782722
  H           2.04951107799423     -0.34579901578845      0.56314312226088
  O           2.59177864130236     -0.10045126797161     -1.84407044812866
  C           0.60700627533967      3.25879433455801     -0.80165835828792
  C          -0.51762096518759      2.56519619526510     -0.89636725271617
  C          -0.67659258491490      1.34959361124095     -1.75562860329174
  O           0.53195184713719      0.80078766729811     -2.22328668736724
  C           0.81670957056649      4.45368706439348      0.05090973537476
  H           1.48423997223702      2.98104881874223     -1.36931128407608
  H          -1.39743526266492      2.84147320126919     -0.33558200720337
  H          -1.23044152830157      1.61372720814516     -2.66427461369513
  H          -1.24907356052425      0.59725850610075     -1.20129225148236
  C           0.36312078128744      0.86209126326847      2.03425841361907
  H          -0.60376606942608      1.01804827492339      2.50894996977759
  H           0.92400301398755      1.80200072707918      2.02815346994852
  H           0.93087873817322      0.11268980282823      2.59618230650547
  C           2.66518471228834     -0.15743392144855     -3.25622859380981
  H           2.53744222514987      0.83192792729039     -3.70249879246110
  H           1.91071088070982     -0.83299225988088     -3.66627668312225
  H           3.66116995982537     -0.53621609855711     -3.47597585821655
  Cl          2.25860357408208      4.20695350871057      1.08438797587835
  Cl          1.13247917619849      5.87903867880545     -0.98860362723652
  Cl         -0.55190822221046      4.83285606549073      1.10277053652251
