25
Coordinates from ORCA-job NEB_product E -48.560112505490
  C           0.92051812471604      1.56068941993315      0.13221361946652
  C           1.58448523653220      0.68674733056049     -0.94496369298543
  O           1.83599306371998      1.94636410544605      1.12009945149992
  H           0.08050712425444      0.99175755611121      0.56183237896495
  O           0.74708961210393     -0.27365403705403     -1.33497643634048
  C           0.40977128712933      2.83480074251983     -0.57566540277586
  C          -0.16563876804961      2.49554142541321     -1.92394315278656
  C           0.38456839869089      2.86766237804953     -3.06330475668944
  O           2.69270036074992      0.85216865978059     -1.37085442848994
  C          -0.62788323957815      3.58146702780667      0.26166165235733
  H           1.27805748249335      3.49185308007723     -0.69283625275530
  H          -1.07024509127707      1.90413846375737     -1.90378124375244
  H           1.28925628828979      3.45137386369323     -3.09396090694629
  H          -0.04628872786881      2.59895470828050     -4.01218838354609
  C           2.28260693022088      0.88553336754368      1.93185432303303
  H           1.43957882706052      0.38333857602520      2.42169868840493
  H           2.92671227229198      1.33559210454701      2.68371045416369
  H           2.85384173998285      0.15056472625470      1.35559408595243
  C           1.17009654093070     -1.14087257396249     -2.38407505851612
  H           2.18188533089603     -0.87826664070526     -2.69660155928004
  H           0.47656528879711     -1.02866823602711     -3.21693002535604
  H           1.14237437367977     -2.16433402495924     -2.01143507793715
  Cl          0.03192466595011      4.13242601094144      1.80809108159777
  Cl         -1.17942873271106      5.01119715591467     -0.64874889399060
  Cl         -2.04854838900512      2.56742481005238      0.59070953670724
