20
Coordinates from ORCA-job NEB_product E -34.168215764530
  C           3.29733863975283     -0.51940829606003      0.36469889632824
  C           2.15065856382097     -0.28445107698943      1.33910838780522
  O           2.86921524798434     -0.27430202408999     -0.93846725422268
  H           4.13368606996225      0.14473211061359      0.63734300855102
  O           2.63181295304313     -0.18894404731783      2.58714597919095
  C           3.77561133270168     -1.98558854244558      0.53346971584665
  C           2.60245856445943     -2.91906374301396      0.44762885409073
  C           2.23251058535346     -3.72036179649899      1.42799012331331
  O           0.98818479692993     -0.22369618629542      1.06493434256457
  O           4.70462100744185     -2.20324399956909     -0.51686092152114
  H           4.27142175048231     -2.08240464061710      1.51052340684522
  H           2.06009755160215     -2.87843627855914     -0.48642584680379
  H           2.76695819438837     -3.75442546664713      2.36435065533110
  H           1.37657221089430     -4.36666789719425      1.34086728463919
  H           3.49797867631366     -0.72074519656539     -1.52378742260060
  C           1.65740711796032     -0.01881317050413      3.61111045609371
  H           2.20764868384537      0.03890520434608      4.54641339787406
  H           0.96809082955750     -0.86527751692029      3.61892341072372
  H           1.08783253843934      0.89659693879428      3.44189360634067
  H           4.93499468506683     -3.13770437446619     -0.53696008039015
