20
Coordinates from ORCA-job NEB_reactant E -34.145960434220
  C           1.77814797663636     -0.04717454162313     -0.07145923909348
  C           1.83816339176349     -0.37834228291253      1.22072703135920
  O           1.62375458996263     -0.95003439480985     -1.11875290565692
  H           1.86157372052987      0.99774563840529     -0.32044650770079
  O           1.97541035770309      0.66152923228279      2.10360899969706
  C           4.42959325777420     -3.55868278336369      1.38111592844627
  C           3.55635502289427     -2.79973217176653      0.73465970374156
  C           2.09821479926036     -2.75609930194320      1.06791002152385
  O           1.75298102818295     -1.59476615180620      1.81989781910276
  O           5.75741891568234     -3.62714015435299      1.13656171014193
  H           4.14294565752798     -4.22965682376385      2.17833574092780
  H           3.88249274520279     -2.13351009308991     -0.05258856919555
  H           1.82852481092642     -3.58381553210030      1.72753695131463
  H           1.49904067905019     -2.79811500063519      0.15448882175426
  H           1.65912088216055     -0.45910971416105     -1.94359358331548
  C           2.01031456250751      0.32747305561683      3.47603846290577
  H           2.12826012207681      1.27509906831712      3.99799424743135
  H           2.85215981784280     -0.33136535804420      3.70511483709024
  H           1.08340167638404     -0.15874253771629      3.79012107447797
  H           5.99032598593134     -3.01696015253311      0.42472945504759
