25
Coordinates from ORCA-job P E -38.770739130350
  C          -1.02156255618825      0.61451524557363     -2.09842076869887
  C          -0.70474119748535     -1.76902948941551     -0.32345574155981
  C          -1.07280995873818     -1.85011135927973     -1.77142816305812
  C          -1.21295350279680     -0.80041291462883     -2.56246706171091
  C          -1.09910445196818      0.69789602045332     -0.57254397112311
  C          -0.20985644179053     -0.37551996694530      0.06182837053033
  H          -1.22416487797797     -2.84717921144821     -2.15983410498676
  H          -1.46141188365366     -0.92736516682607     -3.60688413232725
  C          -2.06148376417429      1.52553977412017     -2.74758099347579
  H          -1.57548285007343     -2.03498137579453      0.28358777244660
  H          -0.03289207367033      0.96291756260606     -2.42717251983144
  H           0.07752305356776     -2.50318327837775     -0.11747233510017
  H          -2.13034214102877      0.52930221625693     -0.25406536240151
  H          -0.22760871420029     -0.25496686374180      1.15028122931264
  H          -0.79139938122176      1.68915617732010     -0.23856471907307
  C           1.23394940138481     -0.18490451400765     -0.37221024411656
  F          -1.81689711540963      2.84047647328655     -2.43099376815777
  H          -3.07111929502969      1.29761755616394     -2.38967022519644
  H          -2.02764617130961      1.45557868865804     -3.83984363746665
  O           1.91761546643822     -1.00798637000381     -0.91950178467147
  O           1.67354727709369      1.03599855859999     -0.04132860550765
  C           3.01559525189932      1.33782894237004     -0.39615567358304
  H           3.22719609902458      2.31894544532864      0.02071031836947
  H           3.12657333351756      1.35216576669378     -1.48236349979453
  H           3.69423649379078      0.58815208303799      0.01541962118186
