25
Coordinates from ORCA-job R E -38.671754570140
  C          -0.95109721500851      0.37383151661361     -2.76302296669940
  C           0.76328697371908     -2.04880459852128     -2.14418489555442
  C          -0.43128882313809     -1.76051849472694     -1.63990562895706
  C          -1.33122552321885     -0.72748695890229     -2.12077969176809
  C          -1.45676275850599      1.45535557830047      0.59770874409148
  C          -0.83329084457756      0.37938254778986      1.05541015485530
  H          -0.80170210293606     -2.34040818254372     -0.80449355252674
  H          -2.38233856016426     -0.87720932623820     -1.90526830364632
  C          -1.90021712744046      1.41613787393651     -3.24761590852327
  H           1.38407631744965     -2.82322009574246     -1.72692150556772
  H           0.09289371044350      0.58249322938990     -2.94837413468637
  H           1.15705158507106     -1.53013837292965     -3.00192019295116
  H          -2.46869836039581      1.68748381829286      0.88621765569193
  H          -1.30067391665899     -0.31482846768621      1.74095434412339
  H          -0.97797423353017      2.13830110957484     -0.08334592642631
  C           0.56011523640298      0.02416079692331      0.70928363079709
  F          -1.51662862995492      2.66716738539473     -2.80806734783060
  H          -2.91627574156892      1.24979675343558     -2.88034434230601
  H          -1.90399588634932      1.47195510030987     -4.34459284101583
  O           1.14961939206922     -0.92529013087160      1.16479102109935
  O           1.11518539499217      0.88523267791514     -0.15515313003092
  C           2.45174603270425      0.60622823963418     -0.53359354829107
  H           2.72137853524391      1.35263182142054     -1.27684027293321
  H           2.52115342656258     -0.40075953782834     -0.95221345848781
  H           3.11578311878952      0.67329571705927      0.33124209754379
