25
Coordinates from ORCA-job TS E -38.662336543750
  C          -1.12870687314672      0.25196398938971     -1.31655811208947
  C           0.24573906982261     -2.02470011849132     -0.17577114475861
  C          -1.03190967259133     -2.07717248820142     -0.60526247787717
  C          -1.69769949631043     -0.97850598192217     -1.20422778729243
  C          -0.94625899430587      0.72244942504971      0.85301851638156
  C          -0.20920994679275     -0.23548239303905      1.47357926283041
  H          -1.63918229804254     -2.93619410772991     -0.35419656714323
  H          -2.75755166938589     -1.08362749824271     -1.39617715586311
  C          -1.88749942647586      1.40837047707515     -1.89082344107023
  H           0.67474204484728     -2.83282545872731      0.39149228935240
  H          -0.05671106631775      0.36688071525136     -1.34830142500595
  H           0.93945701051221     -1.29322122874775     -0.54624986259604
  H          -2.01515631569891      0.73903663740121      0.98426488526909
  H          -0.67633594818654     -1.02142252610614      2.04576117883140
  H          -0.47987505061356      1.64071090010063      0.54155870204707
  C           1.24463652379652     -0.14335858599414      1.64329482168661
  F          -1.24742748937695      2.59562722672795     -1.63240170151966
  H          -2.89694748851534      1.49358415605734     -1.47398513035032
  H          -1.95058834167346      1.32799162107073     -2.98490828569325
  O           1.88167193543644     -0.79733576598050      2.43452101665317
  O           1.79849738112570      0.77038324803956      0.81710293733758
  C           3.19737208583048      0.98348390714554      0.92026485307355
  H           3.36762418198741      2.04539266252568      1.09794042099130
  H           3.66895038225321      0.68596103703007     -0.01781028167351
  H           3.60236946182205      0.39201015031778      1.74387448847882
