21
Coordinates from ORCA-job NEB_product E -44.119459737830
  C           1.58071202248015     -1.41556178778087      1.22385712411740
  C           2.72478417319177     -2.36950883027761      1.52048321093109
  C           1.50624418270846     -0.97219073557758     -0.22433592894795
  H           1.72889694316811     -0.52662203528211      1.85021246074112
  F           3.12649617381595     -3.07441696338598      0.44916160450393
  C           0.33675911185158     -2.18759265025048      1.76711282064177
  C          -0.98049519551740     -1.53176037865313      1.45862414873181
  C          -1.63668434838556     -0.78226684921922      2.32447082458591
  O           3.22549969390076     -2.54317390368979      2.57288429752035
  O           0.44220398400860     -3.48506778548521      1.21878369481305
  H           0.46879256307675     -2.23646843922212      2.86297844882089
  H          -1.38575608495204     -1.74613474516676      0.47921113304163
  H          -1.24864780638539     -0.57804308730846      3.30915823912526
  H          -2.57934554751795     -0.32925525069073      2.07461269499207
  Br          0.33750360387111      0.58645237011728     -0.39127500062650
  Br          3.28044152823982     -0.35746506218905     -0.80561371017859
  Br          0.88424280379749     -2.31911794445207     -1.45469752427576
  C          -0.42927443619320     -4.42858292181044      1.79520070824601
  H          -0.22376026760923     -4.54096414032332      2.86568692755361
  H          -0.23373755811674     -5.36649217619024      1.28136844900820
  H          -1.47657553943305     -4.14266668316211      1.65871537665468
