21
Coordinates from ORCA-job NEB_reactant E -44.116117349170
  C           1.42445245237246     -0.91242431247083      0.31762414211780
  C           2.05241054429980     -0.87201895269106      1.49866779670496
  C           2.13358062289632     -0.96125173915775     -0.97415607174668
  H           0.34862390073753     -0.92802029718028      0.28982130408441
  F           3.38451309580578     -0.85951846270860      1.55704580369796
  C           0.14043825098779     -3.30862196829545      2.42165565177747
  C          -0.50082518468843     -2.14306758851273      2.42119800779650
  C           0.14211319410649     -0.86693358117135      2.88964499017995
  O           1.55537572221416     -0.83669573355365      2.72299534626426
  O          -0.30669136033122     -4.51078258900552      2.02853494607503
  H           1.16777129188605     -3.38623846139565      2.75456689180026
  H          -1.52661385554668     -2.04735720839282      2.10492890800026
  H           0.00758048940834     -0.73045417218220      3.96787253905286
  H          -0.30553094540777     -0.00706386200938      2.37547484646145
  Br          0.84882327988567     -1.07231912714289     -2.43076399819531
  Br          3.24959197349863      0.64628355313011     -1.29381253826999
  Br          3.32464300740966     -2.53560261274196     -1.12450369718265
  C          -1.63236739207740     -4.60194597369819      1.55505458208073
  H          -1.78599423786696     -5.64713192331601      1.29518498337634
  H          -1.77809541729605     -3.97972301216848      0.66688910456497
  H          -2.34889943229419     -4.30611197533531      2.32687646135941
