23
Coordinates from ORCA-job NEB E -64.298656428570
  C           0.61793151724148      0.47252597490166      0.63342559936492
  C          -0.35352260621931     -0.13806488402064      1.46263049366187
  C           0.45911625282874      1.97365110083984      0.45162134559195
  H           1.65514011521058      0.25134309742358      0.88348895035731
  C           0.06318760978716     -1.38110893884783      2.23759556255013
  C           0.25769130194400     -0.35015261258999     -1.01632949903073
  C          -1.11546035875036     -0.09788315117209     -1.19789013980063
  C          -2.03766343158649     -0.58854447545591     -0.21963354410928
  O          -1.61638988290888     -0.00251627841454      1.18650131061504
  C           1.20347590403123      0.03333198872687     -2.12988523732910
  H           0.51927368572459     -1.35525308440968     -0.68165567062648
  H          -1.42682723179858      0.72072169189107     -1.83033784339854
  H          -1.99224539978992     -1.65915692981241     -0.02436972758942
  H          -3.05735377611039     -0.23765825042496     -0.33353927196198
  F           1.46961582637942      2.49705740721423     -0.25075750873028
  F          -0.67085277558527      2.35267273709362     -0.14312159760541
  F           0.48788558074820      2.57311117395926      1.64792551280172
  F          -0.81552789767987     -1.71760514439317      3.17254478232101
  F           0.17479297461827     -2.45330405652228      1.40830335576808
  F           1.25927322086391     -1.23830991847213      2.81469567662633
  Br          1.06031946615938     -1.41390205353108     -3.47247600949950
  Br          0.79178297393401      1.68955476518633     -3.05173869759058
  Br          3.06635693095815      0.06948984083026     -1.54699784238643
