23
Coordinates from ORCA-job NEB_product E -64.328031380800
  C           2.48557432159470     -0.62557741607271     -1.70386246123378
  C           1.45789103265154     -1.03727687013283     -0.65614357635410
  C           2.68245149812669      0.89528067594926     -1.58919677006922
  H           3.46244259051414     -1.06539049182449     -1.46509385107653
  C           1.83976263322072     -2.35564800779500      0.08345078605474
  C           1.98043041434286     -1.19924217836054     -3.06050188220447
  C           0.55954372815750     -0.79757360758300     -3.36621677970451
  C          -0.39928529989514     -1.68359814886948     -3.56034901950654
  O           0.44483714403358     -0.46293650825564     -0.41701651655218
  C           2.87605321307354     -0.91193516318920     -4.27171192042258
  H           2.00856120008572     -2.29168928284838     -2.93716083454022
  H           0.35917734622500      0.26067916570324     -3.43609905811858
  H          -0.22501741352757     -2.74600803354548     -3.49957258449573
  H          -1.40217330526426     -1.37437618871594     -3.79340699680730
  F           3.79050551444234      1.29429682141075     -2.21876577819793
  F           1.67398898827905      1.62555755520200     -2.05123622784979
  F           2.84740133488296      1.22216201622470     -0.30005646128556
  F           0.94283224720808     -2.69731195087096      0.99246336802235
  F           1.94297160925983     -3.36677670646525     -0.79712611658044
  F           3.02988043224397     -2.24000118107243      0.68077060912850
  Br          2.32428271441343     -2.13625374838510     -5.70044798318791
  Br          2.72150050812531      0.88664773805099     -4.99175659807136
  Br          4.76028754780600     -1.29432848855447     -3.89356334694684
