19
Coordinates from ORCA-job NEB_reactant E -45.080377258960
  C           2.69490895073461      0.93105360379297     -0.75716679186268
  C           1.55402341633633      1.59791727902086     -0.85053931699696
  H           3.40822624053920      1.10735119583534      0.02586087452472
  H           2.94346575396002      0.18064054619611     -1.48299958354342
  C           0.57277729574972      1.35663953861077     -1.98317913924280
  C           3.32575843797035      4.27598825322426     -0.31596499621727
  C           2.98706646739279      3.75012531643036      0.85439486786168
  C           1.77786503901892      2.91561783216547      1.11188472054259
  O           1.04727755299768      2.56275192145300     -0.04025353043551
  N           4.51243386669111      5.07576154766937     -0.44386296654187
  H           2.77137022638840      4.17055824075796     -1.23579746018433
  H           3.61644049331380      3.94170929392985      1.71528270398878
  H           1.07509635430762      3.49378567241987      1.72324668610909
  H           2.05979943750636      2.01830269626027      1.68014688731497
  F          -0.63900483845224      1.01310293372850     -1.53187754175520
  F           0.41203793370867      2.45710727123807     -2.73183018187484
  F           0.97083449229291      0.38310125442232     -2.80769680523917
  O           5.20762740961764      5.22802396884839      0.53668604032001
  O           4.73449546992612      5.54126163399623     -1.53813446676779
