21
Coordinates from ORCA-job NEB E -41.742933274520
  C          -1.23252805423751     -1.54664576017523     -1.01774267890839
  C          -0.14068333565591     -0.68751364729463     -0.67378380641201
  C          -1.91889539760955     -1.72311204838848     -2.14780453752436
  H          -1.64811626728031     -1.95400316997911     -0.09932744406369
  O           0.60804089811565     -0.08370008441060     -2.46707722822533
  C           0.35042078890096      1.36344288149029      1.33727142137761
  C           1.24412466267036      0.40721679472253      1.56628385612979
  C           1.88584934955595     -0.32425463076721      0.43824349141347
  O           0.93448676073863     -1.24034235143119     -0.15759664511387
  C          -0.43387209547340      2.01964933718059      2.42504976446424
  H           0.11793193347596      1.72050468349424      0.34700267038633
  H           1.43068478018105      0.05311352611432      2.56970302138805
  H           2.71345612060479     -0.95057390179174      0.77133557261193
  H           2.22063377660303      0.36359430451231     -0.34303951727918
  H          -0.19097184161580      0.38405001555128     -2.73040646639601
  H          -1.59206748474376     -1.36614054436541     -3.11116421041302
  H          -2.84057385268983     -2.27615193328159     -2.15251282657871
  H           0.62732931086111     -0.92881384089468     -2.92916342840949
  F          -1.75786172522616      1.81436815456348      2.29048402653524
  F          -0.10878671956888      1.59792101213736      3.65579084158622
  F          -0.26860160760638      3.35739120301348      2.42845412343116
