21
Coordinates from ORCA-job NEB_product E -41.899168701560
  C           1.98239845357071      1.19195548489549      1.87722153826634
  C           0.48250147871646      1.50639551593025      1.92191595622131
  C           2.13114280814857     -0.09941695750329      1.06623257962221
  H           2.53867948083748      1.99969951777082      1.38708963942869
  O           0.04397008912800      2.38580251193522      1.01547377889095
  C           2.50384768119283      1.01134556872965      3.31643911408624
  C           3.83755542583653      0.32112010038894      3.38069565061591
  C           4.04544050591558     -0.80291494867740      4.03788947590935
  O          -0.26687939528697      0.95801738245786      2.67418310996757
  C           2.64799933320376      2.38413883962328      3.96522584948923
  H           1.75457785744049      0.45646704656479      3.89171892485676
  H           4.64185655295815      0.82275429936767      2.85935491572938
  H           3.25374242258485     -1.30527594596706      4.56798084499141
  H           5.01610036954875     -1.26557652535001      4.07160271970543
  H           1.59797302558208     -0.90721356120368      1.56089872556589
  H           3.17815731929402     -0.37564211736642      0.97509766362121
  H           1.71503605494959      0.02967429723444      0.06924101539152
  H           0.75016522690378      2.79422197441101      0.49742956780490
  F           3.58930468013318      3.13247216473696      3.35631936640078
  F           1.52253650213018      3.11216427124205      3.91587261679853
  F           3.00089412721200      2.30421108077943      5.25241694663640
