21
Coordinates from ORCA-job NEB_reactant E -41.871030307660
  C           1.74673695004327      0.15163215125630      0.11312937367104
  C           2.61885297844247      0.40312118976711      1.08562995930780
  C           0.62140118178819     -0.82436109231865      0.23308770896012
  H           1.85400273865527      0.66805485874359     -0.82916271258464
  O           3.64861110848705      1.30039331808054      0.97650212588996
  C           2.93400973645860      1.79743103653984      5.20349431898690
  C           2.89732905145213      1.50903560056901      3.91307802208248
  C           3.38230809449660      0.21959432250767      3.32691367098672
  O           2.55771734097859     -0.24488927896162      2.28030248407725
  C           2.47568558396642      3.10782046290610      5.75672700181877
  H           3.30866218470472      1.11771965202508      5.95357708549706
  H           2.50913192216062      2.22497413078576      3.20102808540476
  H           3.37518144449775     -0.57847302907816      4.07251450172915
  H           4.41031363044624      0.36570440601054      2.96654613355391
  H           0.59271790959322     -1.23756941586496      1.23609675219083
  H           0.74420516903664     -1.63892144459514     -0.48058145228171
  H          -0.32892960788365     -0.33563591068441      0.02050682198033
  H           3.64763925811575      1.67759341247626      0.09125037931735
  F           1.97843443754062      3.93813848167992      4.83120410207143
  F           1.51626418987306      2.95343581210836      6.68749235138689
  F           3.47632469714646      3.77300133604685      6.36626328595358
