20
Coordinates from ORCA-job NEB_reactant E -40.548638241220
  C           0.48317414993391      0.97962427482240     -0.63126582217680
  C           1.75741268740239      1.35096130215881     -0.57052397632824
  I          -0.88841979461466      1.62245472232574      0.82183957795634
  H           0.08399726408173      0.33047448887051     -1.38498261138619
  C           2.75431196818723      0.93358918815812     -1.60835499864412
  C           2.10619002222097      4.44507626846508     -1.07064725253510
  C           3.24399212940084      4.01628148264167     -0.54647147585456
  C           3.32695003193387      2.86581386118741      0.41366521210675
  O           2.15079349205901      2.10342843845818      0.49910898866019
  C           1.96515964344924      5.54416863613446     -2.05620997630506
  H           1.16391204211783      3.98240720686668     -0.81048208062900
  H           4.18764776626364      4.48378028746889     -0.78615891456869
  H           3.48016355714997      3.25596431738695      1.42663215653338
  H           4.19466619814819      2.24161257299997      0.16135959481410
  H           3.58058993526576      0.39314779570350     -1.14690016725466
  H           3.15369273609283      1.80285370341560     -2.13033956748242
  H           2.27634726523419      0.28289819141018     -2.33368008042782
  Cl          0.77861169421643      6.74042451221095     -1.46438862966581
  Cl          3.47926705151202      6.38790289342512     -2.40996053311729
  Cl          1.34254015994459      4.85523585588979     -3.59233944369499
