20
Coordinates from ORCA-job NEB_product E -40.561607854430
  C           2.17385484890495      2.14247959338276     -1.26474745702275
  C           0.74432740226688      2.07924712042156     -1.79544726109513
  I           2.19211334820180      0.60840635888348      0.26830063121403
  H           2.90507750511089      1.81693693053653     -2.00344581910422
  C           0.55302292993386      1.12631241756787     -2.93803147312290
  C           2.52303759426799      3.51431416076193     -0.68978490417826
  C           3.61056861176597      3.46991772936603      0.34775478381622
  C           3.48374649875647      3.99318844693652      1.55195403538253
  O          -0.13627662237868      2.72474784868670     -1.29377652726732
  C           2.95555962580425      4.44506752820646     -1.82825776453915
  H           1.61041110111967      3.93648542042248     -0.24893612090344
  H           4.52368120890503      2.97731858590109      0.04463842333662
  H           2.58011005469039      4.48874074729980      1.86652139245114
  H           4.27818995192434      3.93798707497181      2.27510896480802
  H           1.04490434044382      1.53321275448705     -3.82065601692778
  H          -0.50620948082320      1.00171646595141     -3.14586789904335
  H           1.00243294574335      0.16126971602775     -2.71288796255758
  Cl          1.72374659025895      4.52664726569589     -3.11535777015665
  Cl          3.21161174727764      6.08714577199000     -1.20063150776482
  Cl          4.47598979782562      3.89105806250289     -2.57484974732521
