20
Coordinates from ORCA-job NEB E -49.007323518270
  C           0.31011800699746     -1.15204515829683      0.18115749029243
  C          -0.83030007128611     -1.24471749562875     -0.65024406907889
  C           0.11082562801027     -1.43033623960789      1.56577238229278
  H           1.21441992368832     -1.60610455238146     -0.22461500414816
  N          -0.58149746814887     -1.48949275271106     -2.06043661918312
  C           0.61140686198960      0.71540787772833      0.09889899983016
  C          -0.63081196888534      1.22246069232355      0.50159159681308
  C          -1.78720384678193      0.91870811991065     -0.30525264675253
  O          -1.93087302480490     -0.62003594562103     -0.35495595887845
  C           1.84312544180914      1.07507566387362      0.89791178070860
  H           0.84759256704278      0.75476630467959     -0.96294721801255
  H          -0.77441441486125      1.48488488741594      1.53900379903961
  H          -1.70210924940551      1.18365473209515     -1.36117859777595
  H          -2.73252738936068      1.25287563574860      0.11053298351223
  N          -0.09115915810300     -1.72269653222034      2.65168113038716
  O           0.46467081515757     -2.03716645418124     -2.35294676432782
  O          -1.42912266996698     -1.11028963992154     -2.83863904273723
  Cl          2.28596229694535      2.74495033244096      0.41614140608547
  Cl          1.58602516473660      1.04743395709149      2.65010067893207
  Cl          3.21587255522747      0.01266656726224      0.49842367300110
