20
Coordinates from ORCA-job NEB_product E -49.035153628590
  C           2.92181902037937      2.10902246353695     -0.10685079076624
  C           1.67312871488112      2.04415313311211     -0.94018763679338
  C           3.04011367123688      0.84625689088406      0.60465308351449
  H           3.78541770600828      2.17891578801818     -0.78481379264086
  N           1.76869473640570      0.95915130076512     -2.04471532426607
  C           2.87398556902782      3.32885533330964      0.84427751759892
  C           2.02366190383457      3.04646721024750      2.05555602140789
  C           0.87381381037374      3.65007870206278      2.28371940907552
  O           0.67877584033521      2.67641704737156     -0.86646205695997
  C           4.28728434814933      3.74734254559812      1.25613822672438
  H           2.43722356329973      4.16768353817089      0.29064637177073
  H           2.41139736086919      2.29821989288785      2.73151395629258
  H           0.47393996381074      4.39170860967564      1.61264966934467
  H           0.28211628742549      3.41691102396720      3.15098269398515
  N           3.10057004258768     -0.15072244181051      1.15436661979715
  O           0.73674625461209      0.69257505669334     -2.59079480613480
  O           2.86293079005322      0.49791997137636     -2.25428125015460
  Cl          4.19000497674552      5.14689352691433      2.34607203301289
  Cl          5.15236117590014      2.42952964561422      2.08158758181535
  Cl          5.23371426406419      4.22512076160465     -0.18435752662379
