25
Coordinates from ORCA-job NEB E -40.136156248720
  C           0.58799224323638      0.62200998003402      0.09711558973630
  C          -0.57996606605628      0.42221552083879      0.84653402446046
  C           0.67095496512181      1.91498439251208     -0.65774392929643
  H           1.54059326259224      0.31397004324453      0.50747165687886
  C          -0.61942092269310     -0.53291330453215      2.01930178304527
  C           0.23609449959568     -0.78534929362188     -1.35830639018618
  C          -0.95437785720973     -0.23669368709405     -1.86867705908267
  C          -2.10130903288818     -0.22828178411503     -1.08804016617629
  O          -1.69412164456924      0.81068389811533      0.35582336856361
  N           1.34992769729852     -0.90550945654969     -2.15103577338680
  H           0.14249666714385     -1.60154614808871     -0.64931087794347
  H          -0.86900390640065      0.45814667767835     -2.69201148580246
  H          -2.32481182937210     -1.09105651844024     -0.47615420079970
  H          -2.97112785249431      0.29715518658972     -1.44908905762827
  F           1.27451675955674      2.85975464619716      0.12046103083821
  F           1.45205107144102      1.84888672444303     -1.77270793184279
  H          -0.31455257509593      2.29916423669864     -0.95167337032412
  C           0.71802732807912     -0.82696115974251      2.68283287984714
  H          -1.07772661995223     -1.46725885715413      1.67303555176061
  H          -1.30912483938928     -0.10280116775660      2.74966399233485
  H           1.37047283610977     -1.39781652435752      2.02614620334788
  H           0.55859483117479     -1.41203918492908      3.58569140546967
  H           1.21908677532003      0.09734634144728      2.96004289689074
  H           1.49562694616225     -0.16165233942511     -2.81750642945076
  H           2.19910726328883     -1.19443822199224     -1.69186371125370
