21
Coordinates from ORCA-job NEB E -44.581147873320
  C          -0.48639766843161      1.09723814712401      0.12517405491163
  C          -1.61042677954689      0.62412545708518      0.79039522630952
  C          -0.59583998109108      1.53620617410370     -1.30254407871757
  H           0.18846490217555      1.74277856752852      0.67636227548908
  I          -1.49363570255376      0.84542227510446      2.97160001923185
  C           0.56352207936159     -0.79865944004256      0.19335635141807
  C          -0.41626796166063     -1.58349923316711     -0.42033466124725
  C          -1.61288787239287     -1.85367510527275      0.22460802019164
  O          -2.43067762902953     -0.19034884070863      0.36474917097382
  O           1.72432144087172     -0.60284298575538     -0.43050802419386
  H           0.59654563497715     -0.75483136792142      1.28227571503088
  H          -0.32697565236384     -1.73756079613634     -1.48425066024351
  H          -1.62455621928769     -1.99055787983484      1.29745321906399
  H          -2.38686541307322     -2.38058107543794     -0.30972962121536
  Cl         -1.61856556064740      0.53598443648733     -2.33298122425723
  Cl         -1.32637112527325      3.20027781204710     -1.29294541925755
  Cl          1.00177696859863      1.69530586083162     -2.06407562884321
  C           2.75561349807002      0.03248064988696      0.29849508107284
  H           2.58764807225812      1.11191215704010      0.34641925104223
  H           3.67777164992936     -0.15981068034123     -0.24586814807617
  H           2.83380331910964     -0.36936413262079      1.31234908131616
