21
Coordinates from ORCA-job NEB_reactant E -44.614591727620
  C           1.78177305968574      0.19644056046675      0.07254817701368
  C           1.56212374641585     -0.93521520197196      0.74677115881170
  C           1.95146752745731      0.21273827596257     -1.40305042116597
  H           1.82969945506053      1.14475340822232      0.57872127568747
  I           1.38215000212446     -0.77741013642983      2.86940392803196
  C           4.16906924652196     -3.20013802655605      1.68074446647742
  C           3.36995775896312     -3.33540638820057      0.62555734476392
  C           1.88177281735514     -3.30440919419909      0.73792488635173
  O           1.34504519596484     -2.09811802668342      0.17655331428066
  O           5.51015350643037     -3.16460830726389      1.71011595765238
  H           3.77673684576953     -3.12583114882395      2.68785083645298
  H           3.75398521009804     -3.40343603809357     -0.37949148022563
  H           1.56040879969820     -3.39766066753639      1.78193312069762
  H           1.41756897903096     -4.09287123737406      0.14153690672932
  Cl          3.28990891030825     -0.85799594596027     -1.90801621486704
  Cl          0.47247554067354     -0.34745064023281     -2.24320380866375
  Cl          2.32378255108728      1.85242106216366     -1.96457240848614
  C           6.19845706248492     -3.22372915664739      0.47988254251662
  H           7.25605166434870     -3.14663652459550      0.72347441832711
  H           5.91001372130714     -2.39537614968606     -0.17406172357527
  H           6.00799839921411     -4.17126051656049     -0.03262227681076
