21
Coordinates from ORCA-job NEB E -44.079244940460
  C          -0.12433145489024     -1.01122071043828      0.53125332595970
  C          -1.31802162702712     -0.67788454882899     -0.14445618322599
  F          -0.22724435903772     -1.12077819735952      1.87424826750645
  H           0.55204244227271     -1.77109864451062      0.15277187762541
  O          -1.45618399784990     -0.84592218092348     -1.48382303717288
  C           0.73280095614679      0.73549144601786      0.37910931077072
  C          -0.17937308804052      1.55319695608768      1.05747078535236
  C          -1.46639861960739      1.69037300734723      0.47469044130218
  O          -2.11071221602474      0.17150694100250      0.39600657499004
  C           2.13703704907937      0.62165474477980      0.88415197599670
  H           0.72563005028307      0.80412705780016     -0.70944160738270
  H          -0.08020442978874      1.67098537352338      2.12661346966087
  H          -1.50119419655669      1.94626293986903     -0.58091221986258
  H          -2.20904053993880      2.21313632956976      1.06244185783065
  C          -0.63811062181164     -1.77956047858345     -2.16010913205772
  H          -1.05215706037229     -1.85440569275654     -3.16380156503811
  H          -0.67288477242790     -2.75963278155074     -1.67796001165166
  H           0.39964442504000     -1.44047303830058     -2.22253853878520
  Br          3.05679441603434      2.33017169385682      0.49222637720209
  Br          2.29720016650593      0.28772203164885      2.78514612654330
  Br          3.13470747801148     -0.76365224825087     -0.07308809556364
