21
Coordinates from ORCA-job NEB_product E -44.127346658380
  C           3.06363850817619      1.33415739342369     -0.20548970047545
  C           1.63638998138114      1.14563573806501     -0.76189727853819
  F           3.01564817228769      1.14665579296626      1.15017384625186
  H           3.76907657705909      0.58752637781802     -0.58987493488520
  O           1.50007158249280      0.62746607910430     -1.98187775518387
  C           3.49969065664279      2.77657594295621     -0.53718756644548
  C           2.72510002970965      3.75243665688645      0.30798220663737
  C           2.02884134723716      4.75126411914888     -0.19865909850214
  O           0.67811447539995      1.49909772811166     -0.14293412392034
  C           5.00056384596011      2.99403469183562     -0.35699354979359
  H           3.27915355310658      2.96141933332714     -1.59786897842023
  H           2.76702023406584      3.57699332575396      1.37316590833317
  H           1.96888735134476      4.93384686501401     -1.25952151336006
  H           1.48568692790146      5.42855335172418      0.43529513749951
  C           2.57402305075929      0.11645831431846     -2.75538783080237
  H           3.32560951584578      0.87734356889207     -2.97611248719704
  H           2.11691316106071     -0.21274588533784     -3.68699079160908
  H           3.04610337199985     -0.73997483147261     -2.26923328121388
  Br          5.45726084763531      4.82389135974828     -0.88266920197390
  Br          5.61763066668545      2.70931207212015      1.46013825000049
  Br          6.01517614324842      1.79965200559610     -1.54625725640158
