21
Coordinates from ORCA-job NEB_product E -41.867672843680
  C           2.61993999074176     -0.64659397758426     -1.46014302157110
  C           1.28711713325576     -1.34296432028381     -1.40079476213020
  C           2.52803793405325      0.69314016270762     -0.71830407578546
  H           3.32623024818636     -1.27407621526356     -0.90089524776203
  F           0.98970977865205     -1.60308177315538     -0.08662668863916
  C           3.16602379236742     -0.50655161873660     -2.89939059713987
  C           2.24126078831971      0.26046747521016     -3.80710292391061
  C           2.55525316839599      1.42836764288187     -4.33397703539875
  O           0.52961827733890     -1.66845910212320     -2.23306425642795
  O           3.38530813192784     -1.83688252087090     -3.33391284600254
  H           4.13378109333179      0.02345596131437     -2.84073201390106
  H           1.29993364006490     -0.22428011517098     -4.01696390106424
  H           1.87634791344505      1.95795143262695     -4.97889731400408
  H           3.49581031598961      1.91311319391685     -4.12587778183935
  F           3.72266320791493      1.32464066289291     -0.74204402966185
  F           1.64373443821645      1.52993280312963     -1.30093243280112
  H           2.23145685629317      0.57099738413050      0.33563703861221
  C           4.04526066809016     -1.92348608925570     -4.57410479831073
  H           5.02500000481376     -1.43222916467897     -4.53202425949239
  H           3.45570549837339     -1.46985580785997     -5.37687798235051
  H           4.17640712022774     -2.98490601382753     -4.77117107041918
