18
Coordinates from ORCA-job NEB_product E -39.156868644480
  C           2.16875840088604      0.69118456505021     -1.66238269708493
  C           1.09608293256777     -0.36831260590178     -1.70817369212154
  C           2.34477802398807      1.17531413963045     -0.21145473493782
  H           3.11449724314328      0.20746433547814     -1.94528378962084
  F           1.32663441301482     -1.31162890145374     -0.75660510064749
  C           1.85080659167143      1.82115005500872     -2.67559508682371
  C           0.84876214361369      2.82567305894085     -2.15622711942869
  C          -0.41870128270552      2.82196296939576     -2.51838160431406
  O           0.17985558178205     -0.47568148049068     -2.43555582834889
  C           3.07392885377189      2.50271643395566     -3.04739829576584
  H           1.44554990540658      1.34393122331117     -3.57761477805064
  H           1.23639269060423      3.55858587954465     -1.46295996613227
  H          -0.81499998227164      2.09335080504529     -3.20655048246446
  H          -1.11352784621782      3.54372619544089     -2.12691355130627
  F           3.19219602003959      2.22063912398132     -0.15567862691363
  F           1.17294033793047      1.59779324270842      0.31226550443568
  H           2.73628080375710      0.38228923601160      0.44522535122278
  N           4.03016516901798      3.04424172434305     -3.35651550169736
