18
Coordinates from ORCA-job NEB_reactant E -39.141032632580
  C           1.70922674594198      0.17787088783189     -0.14782968080951
  C           1.18659022097570     -0.39053255872560     -1.23805401137204
  C           1.52795275239590      1.56765892813592      0.35460162277063
  H           2.31677522193018     -0.46356349825753      0.46786869492194
  F           1.45234089997706     -1.69713314116635     -1.40793632984617
  C           1.89394002537244      3.11724093426318     -3.37296945903919
  C           1.53472113639324      1.83717931374405     -3.31785780672672
  C           0.29219616689853      1.34872647070368     -2.64178915902221
  O           0.40797140814942     -0.01036952004739     -2.23692684799105
  C           3.05091756004713      3.54351613096245     -4.05367625420364
  H           1.31755536279048      3.89743073955858     -2.89431737516953
  H           2.13341089709742      1.07338772316731     -3.79668178186186
  H          -0.53096227517897      1.32620265684515     -3.36638596236070
  H          -0.00459670039689      1.99871501251982     -1.81558714443014
  F           2.09532888521225      2.50902249793022     -0.45426313679636
  F           0.21402958092426      1.92572856173628      0.43562076308873
  H           1.96297314308139      1.69610860826171      1.35512897899963
  N           3.98642896838849      3.90171025253665     -4.61074511015183
