19
Coordinates from ORCA-job NEB E -40.778882920830
  C           0.76184128717571     -0.87960785150448      0.48458396510335
  C          -0.48777479798794     -0.66763056569291      1.05553791995374
  I           2.45906283095484     -0.24526648341202      1.57517391602606
  H           0.95537218430974     -1.81443161490939     -0.02192045026879
  C          -1.60369886999356     -1.65134655854873      0.67302291385787
  C           0.66982341536842      0.52231936401877     -1.08204113979691
  C           0.32262365267727      1.64351765119671     -0.30634289258649
  C          -0.90892189053865      1.74278816293095      0.30752583951243
  O          -0.80393777190310      0.40680532115449      1.62236783507437
  N           1.87327217793491      0.47534721891390     -1.71932345206183
  H          -0.11954317882770     -0.01536771187831     -1.59285095108212
  H           1.13209097203813      2.26694054585483      0.04904983862363
  H          -1.77955553416632      1.30714999726288     -0.16006577079735
  H          -1.10732829694382      2.57652904885310      0.96041640759364
  Cl         -1.60192137555790     -2.07353742260627     -1.05971597272359
  Cl         -1.33639308076663     -3.15861704681990      1.59288518737079
  Cl         -3.18809303026549     -0.99322022656609      1.08799521979876
  H           2.64921757903996      0.92963103645814     -1.25948676068057
  H           2.11386372745211     -0.37200286470564     -2.20681165291699
