19
Coordinates from ORCA-job NEB_reactant E -40.803356949530
  C           2.10641794808661     -0.23563673231564     -0.30641707889774
  C           1.57291794016955      0.06074213446198     -1.48824991050479
  I           2.32138744266538      1.18385183480884      1.20466807333494
  H           2.43646931693475     -1.22485273868230     -0.04663526654989
  C           1.40774652071136     -1.05285087714415     -2.51420085548083
  C           2.31923101859221      1.98978402515901     -4.77331255202069
  C           2.79463851231636      1.81872260434207     -3.53751336690017
  C           2.05622657243193      2.25891348641314     -2.32347721466391
  O           1.09959661353451      1.26871198880210     -1.84537755285249
  N           2.97417187399855      1.63858090812890     -5.92342363442135
  H           1.38171321908433      2.50708891503189     -4.92824099783708
  H           3.72574579416545      1.29288258092397     -3.38225210693090
  H           1.41777324002659      3.11948008591966     -2.52633635022102
  H           2.74935077891162      2.49977528986849     -1.51167634482889
  Cl          3.00377125269508     -1.51725297036050     -3.16984818247611
  Cl          0.69387470381409     -2.50420905449466     -1.76795694465399
  Cl          0.37234970809912     -0.54622109602639     -3.84663276595032
  H           3.74107657328365      0.99295668841877     -5.81676313283832
  H           2.41414097047889      1.49563292674479     -6.74655381530644
