19
Coordinates from ORCA-job NEB E -39.364850946700
  C           0.86306929572391      0.17562802453257      0.31309502334540
  C          -0.27744995905345      0.11645576057156      1.30122634537394
  C           1.00939066171735      1.58897538390528     -0.26982275485604
  H           1.82670068127350     -0.06204661146859      0.79548235724290
  C          -0.19371468918443      0.93962400982479      2.43185526547186
  C           0.43241013140854     -0.77494775914676     -0.81051836271854
  C          -1.06936206905819     -0.66311188968102     -0.80065532369034
  C          -1.72795339611318     -1.35952251279358      0.32183539177811
  O          -1.10094248989999     -0.95358821401456      1.50294943635607
  C           0.97781079138458     -0.49193359234726     -2.11904474652636
  H           0.74250893146060     -1.79982527964014     -0.54659682139810
  H          -1.59416141099137     -0.57086871999875     -1.73747522289800
  H          -1.69658519920382     -2.45756789013671      0.23512457412612
  H          -2.78473414368454     -1.07629964152519      0.40928316323003
  F           1.11108076407668      2.51709174028712      0.70313470672095
  F           2.15420413485503      1.67749470784297     -0.97970732332057
  H           0.16714900048519      1.86833299202025     -0.92434049684921
  N          -0.18287987131834      1.62533487578863      3.35743329941995
  N           1.34345883612194     -0.29922538402060     -3.18325851080819
