19
Coordinates from ORCA-job NEB_product E -39.418600226720
  C           2.32828051962544     -1.78415397420596     -1.00097924883293
  C           1.47055405417502     -2.19595066717676      0.19147618613536
  C           2.48014117660339     -0.26634389417448     -1.12637308175954
  H           3.33217302804797     -2.19955632688737     -0.82756068501859
  C           1.09985490929683     -1.11959049997484      1.09464533989311
  C           1.74142161250177     -2.44409888860869     -2.27841208424234
  C           0.52089374012226     -1.71438016785709     -2.78374533532827
  C          -0.70810428767339     -2.15233186161028     -2.58936237360111
  O           1.10567262394185     -3.32615321573815      0.37219783023380
  C           2.74133915759042     -2.51533451825730     -3.32433972059175
  H           1.47106448531913     -3.47462168949909     -2.00934384038066
  H           0.71540621283720     -0.80280724253470     -3.33193095093229
  H          -0.91239868415204     -3.06653732374276     -2.05547293186916
  H          -1.56283947139851     -1.61266437942046     -2.95793641632554
  F           3.24113665483875      0.19972369132830     -0.10831933600904
  F           3.12941286034307      0.05911983023934     -2.26286572120440
  H           1.52415793986810      0.28134568525786     -1.11238800313034
  N           0.76502526880030     -0.29273687698312      1.81033722852572
  N           3.51300819931243     -2.59772768015446     -4.16112685556204
