18
Coordinates from ORCA-job NEB E -42.620939940550
  C           0.48293187165999      0.22521681970308      0.15818070862382
  C           0.38337750231314      0.83369135312395      1.42950794021017
  C           0.67694470886034      0.86942909777419     -1.10951913202254
  H           0.62724536687149      1.96027508766005     -1.11137728287789
  C           0.43577349656698      2.38562787635483      1.44746189410971
  C           0.26866855354898     -1.22635549163125      0.00542364785173
  C          -0.73740070404664     -1.59582429379123     -1.01908484477500
  C          -1.77172470476664     -2.39749239100893     -0.89420037285646
  O           0.30125605607740      0.23269491901422      2.48782178693456
  Br          1.99368042189871     -1.94951008821010     -0.80311373505251
  H           0.13202832606307     -1.70792502487890      0.97206695140216
  H          -0.46987650276710     -1.10099166365333     -1.97219786174632
  H          -1.98516249744818     -2.91290432749176      0.02856206476183
  H          -2.44884487162368     -2.57768855187594     -1.71088231445811
  N           0.76356056718859      0.30036217370946     -2.19868432393296
  F          -0.57084737418010      2.92166701315268      0.72064895579113
  F           0.34595481881676      2.88062753449039      2.67131417183607
  F           1.57243496496690      2.85909995755858      0.89807174620062
