18
Coordinates from ORCA-job NEB_product E -42.707747310320
  C           1.52310107477963     -1.38826758153471      0.88190064060893
  C           2.23616148021476     -0.95992491879309      2.15177428856725
  C           2.12076989816926     -0.76960724622358     -0.28763613478522
  H           0.48910966714744     -1.01268702434647      0.95510322800384
  C           2.44887183588020      0.58071441351181      2.25131697621481
  C           1.48485256863476     -2.91850477849579      0.74676917523667
  C           0.63134716389583     -3.36271339069908     -0.39031714558635
  C          -0.33512986490085     -4.25315826447271     -0.26216779956878
  O           2.59470084298983     -1.68858926790278      3.02235555140719
  Br          3.33782489644571     -3.58882744732851      0.46586355249623
  H           1.16672497806980     -3.36165614069880      1.69303303412436
  H           0.87205960478829     -2.92332443648062     -1.34908404066329
  H          -0.56959538648812     -4.70836763407973      0.68633579568132
  H          -0.92877726264022     -4.56271068573883     -1.10375452844337
  N           2.58557373778235     -0.32036443325680     -1.22653500615398
  F           1.40604152602118      1.24869904804091      1.73112425108924
  F           2.57945639860251      0.96975513804529      3.51570587753164
  F           3.54060684060763      0.96123465045348      1.58541228423952
