17
Coordinates from ORCA-job NEB_product E -37.276852791300
  C           2.73365710478887      0.49102695357674     -1.94526809324648
  C           1.37418537079929     -0.04404097059290     -2.29571278611363
  I           2.58115679670521      0.84059578125874      0.19988907084235
  H           3.49418512822058     -0.28256201011518     -2.06565717184173
  C           1.30308489065739     -1.58954766331948     -2.27584270993508
  C           3.14758961000164      1.76981596024249     -2.64959829359269
  C           2.24996881783668      2.94027317941210     -2.45363147581181
  C           2.68542991482995      4.09610232797079     -1.98494566737626
  O           0.40869788024322      0.60404008198619     -2.58016244217782
  Br          3.22807952022670      1.31253205189515     -4.59298456951173
  H           4.17676893967216      2.02104049321607     -2.37859660085999
  H           1.21568065291092      2.79558001462463     -2.72841204453217
  H           2.02065251742549      4.92996968437593     -1.84642895997305
  H           3.71728819752081      4.25311766901454     -1.71403731787552
  F           2.04571503608752     -2.06489415131427     -3.30168561800382
  F           1.84815849829116     -2.09114223784063     -1.14622097014686
  H           0.27280112378238     -1.95740716439090     -2.37750434984371
