18
Coordinates from ORCA-job R E -31.598798158030
  C          -1.24717944517612     -0.29414782552844     -2.75381755555230
  C           0.09108915579170     -2.97673170236227     -2.44700656055415
  C          -1.17642841486146     -2.69841504087551     -2.14751604826906
  C          -1.75424681887918     -1.37673454767071     -2.14962254385855
  C          -0.76741074122382      2.53576555193685     -0.07123178281890
  C          -0.66092401156255      1.35135883745972      0.48526163842028
  H          -1.84265365020723     -3.49375062895184     -1.84176084511772
  H          -2.68602302050021     -1.24781527609842     -1.60980247341665
  N          -1.88617724115454      0.96943412574050     -2.64613195110210
  H           0.46830728902224     -3.98380987909206     -2.40596149876441
  H          -0.34638834540725     -0.27231117437776     -3.34545110466275
  H           0.80086013687772     -2.21191412848392     -2.71086061592130
  H          -1.63475367956102      3.14613286128749      0.11709525615600
  H          -1.38928480798878      0.92590062218057      1.15308859041729
  H          -0.02920795436013      2.93957190725523     -0.74326919067398
  I           0.98609800591900      0.06808610741227      0.16547337759089
  O          -1.34965154332689      1.90515361566509     -3.20822077189557
  O          -2.91049491340146      1.05548657450323     -1.99511591997703
