20
Coordinates from ORCA-job NEB E -33.527948638860
  C           1.24983306620113     -0.79728416599484     -0.08239020419523
  C          -0.15001374340351     -0.61953007035992     -0.08074878251848
  F           1.79348235124517     -1.55644921486807      0.89866354157617
  H           1.77325497386702     -0.98884823569942     -1.01669039827656
  C          -0.84366365924972     -0.18587885756808     -1.34727139589918
  C           1.79263380681856      0.90803690974986      0.47478108322084
  C           1.17759710727978      1.02418795402657      1.72951184114070
  C          -0.23945377229193      1.00399535476489      1.75292162446060
  O          -0.72463546467254     -0.40338706925592      1.06302678472565
  F           3.13990654518904      0.84137733774654      0.43890310091850
  H           1.44335859267190      1.51006152715518     -0.36422255318692
  H           1.72780160799664      0.65627452250328      2.58193661751847
  H          -0.74474518361061      1.70301297360023      1.09024832876299
  H          -0.70079756665637      0.94836207576841      2.73034724791291
  C          -2.11715964730195     -1.00346122430718     -1.56688452584904
  H          -0.17208111052155     -0.29605381971527     -2.19882856221015
  H          -1.11795694501477      0.87132397397315     -1.25108175373798
  H          -1.87041352588018     -2.05045286868679     -1.72272046633409
  H          -2.65775566016438     -0.63801357332505     -2.43615667670757
  H          -2.75919177250172     -0.92727352950757     -0.69334485132164
