20
Coordinates from ORCA-job NEB_product E -33.567494910620
  C           2.99765077187911      1.75102161282865     -0.81060781604179
  C           1.48776473842399      1.52055442429469     -0.95663346785042
  F           3.54459002138210      0.76868550246729     -0.02366716418601
  H           3.51387570340974      1.70212952118339     -1.77750361186000
  C           0.93967753029367      1.92459067452134     -2.30443189552763
  C           3.22931894473337      3.13750344495948     -0.16848433768481
  C           3.01878089854746      3.08763434747220      1.31285598843153
  C           1.91352848161241      3.50081695874472      1.90065666025363
  O           0.82825372730552      1.07068633053385     -0.06243395850973
  F           4.51568909030727      3.54533519077022     -0.46151161585612
  H           2.56590340020326      3.86887845791627     -0.64893437414154
  H           3.83588244703814      2.64896409185102      1.86558940476671
  H           1.09420353888971      3.92756245908893      1.34548692440825
  H           1.77959859921727      3.41758998290361      2.96423405966725
  C          -0.57801239060197      2.05293288530563     -2.28940498833754
  H           1.24128969146013      1.14590615728633     -3.01162613935827
  H           1.41317717812838      2.85455898693751     -2.62667785665882
  H          -1.02475322073923      1.12979659458158     -1.93086499695377
  H          -0.95214727454359      2.26288889057865     -3.28754828273518
  H          -0.88357187694676      2.85666348577461     -1.62439253182574
