19
Coordinates from ORCA-job NEB E -29.405540412180
  C           1.15986662679714      0.61112219409590      0.01797650150426
  C           0.46447447010929      1.55240081057668      0.78823846203361
  N           1.15303125859915      0.68002033086098     -1.37735818920460
  H           2.06747906110089      0.19204446363696      0.43460996648701
  Cl          0.83258146457975      1.48999433044875      2.53688167766361
  C          -0.18288145063738     -0.88861065855611      0.34381748569688
  C          -1.34477117016164     -0.29255950083896     -0.12840001916787
  C          -1.89890455545167      0.79455377283157      0.57234010887557
  O          -0.66274360474870      2.00770495380062      0.45631463754335
  C           0.43698519740909     -2.03369761915031     -0.40193739104302
  H          -0.04430128878909     -0.92413566554334      1.41942611328213
  H          -1.58720226714536     -0.40724312707510     -1.17578189226874
  H          -1.92652211784792      0.73867393233846      1.65444526898173
  H          -2.74248843067792      1.31183770212466      0.13849560441180
  H           2.06082293024451      0.82469668966476     -1.79247299346608
  H           0.46146179283244      1.32911083307886     -1.72863481065547
  H           0.48806404811607     -1.81399663990153     -1.46489953940690
  H          -0.17224459009390     -2.92549831255312     -0.25823628856369
  H           1.43729262576525     -2.24641848983974     -0.03482470270357
