19
Coordinates from ORCA-job NEB_product E -29.446040872430
  C           1.57892975456405     -2.54875127277548      0.10065470820724
  C           1.19435485929344     -1.27618375259960      0.81983867308182
  N           1.48188566855138     -2.40444952707075     -1.33375258067887
  H           2.61490402352550     -2.79666574483387      0.35869394865250
  Cl          1.61292301317173     -1.30002733656084      2.54007878329251
  C           0.67119968441259     -3.70671848854969      0.60511265589220
  C          -0.77031179270473     -3.40756696459231      0.31061037713975
  C          -1.64127832507950     -3.00399051850049      1.21565230668012
  O           0.66805189233556     -0.32224735806756      0.35270013943283
  C           1.10139571872937     -5.01132774127045     -0.06025387340499
  H           0.80812169803243     -3.78229528391180      1.68760551515379
  H          -1.07253092518164     -3.54923049313490     -0.71808067919875
  H          -1.36465146384581     -2.86360282714516      2.24813044084912
  H          -2.66769263675818     -2.79572412503607      0.96696530928635
  H           2.15087065652717     -1.72179030829538     -1.67153005216777
  H           0.55581584852456     -2.07727969298875     -1.58865872876889
  H           1.07507169816310     -4.90035793978123     -1.14042527069565
  H           0.42998401227338     -5.81416286366764      0.23372345294246
  H           2.11275661546559     -5.27542776121802      0.23753487430423
