19
Coordinates from ORCA-job NEB_reactant E -29.428892759130
  C           1.92759804388825     -0.11191635872174      0.20930626787955
  C           1.54211826395235     -1.14569464165365      0.95957093093143
  N           1.94401338975903     -0.13493151231428     -1.17710444783225
  H           2.19998929473202      0.82245632175602      0.67244512646834
  Cl          1.40859785027509     -0.94674006300916      2.69608313784534
  C          -0.54970613787154     -5.30315468129008      0.73717927331344
  C          -0.18308057832723     -4.21300980179850      0.08461123441660
  C          -0.05770417535992     -2.86243978478479      0.71037271612546
  O           1.27078493590100     -2.37751059643847      0.47343816585748
  C          -0.69135057692536     -6.65294911884805      0.12105247480697
  H          -0.78506513029457     -5.24535411973595      1.79242155314164
  H           0.06536002309107     -4.25358469562915     -0.96683094167129
  H          -0.24413376924185     -2.91170138711708      1.78948615349275
  H          -0.77580698205333     -2.16154996506473      0.25800712592248
  H           2.69903974458227      0.38566231353240     -1.59770239499783
  H           1.85186341739540     -1.06760381047869     -1.55563029432411
  H          -0.43321260840203     -6.63114425375395     -0.93441858288396
  H          -1.71595784031380     -7.00847591676679      0.22725834823294
  H          -0.04234716478685     -7.36515792788335      0.62935415327501
