23
Coordinates from ORCA-job NEB E -40.921225592510
  C           0.36409319404571     -0.60514769670360      0.71663549403226
  C          -0.92966224381575     -0.25347879493526      1.12491677097549
  C           1.55790551856514      0.07909362241345      1.35033823525421
  H           0.56366425343069     -1.67115829166643      0.64452322962278
  C          -2.05155125635040     -1.26086910921469      0.99111284959038
  C           0.29801416909971      0.00309550264219     -1.12867403974365
  C          -0.10262021328096      1.33271619196477     -0.98412432824279
  C          -1.35088079192422      1.61896556832257     -0.35683876388711
  O          -1.27659906271055      1.00538846576699      1.13552840086648
  C           1.63297529166119     -0.29968454595134     -1.75302599716768
  H          -0.47047970986553     -0.71029958976777     -1.41839771294459
  H           0.65454837588024      2.10155913187237     -0.97480581439917
  H          -2.21994449442405      1.08953941091374     -0.74468088582734
  H          -1.55940460466636      2.66446734737393     -0.16553800988236
  F           2.71138495803546     -0.52508319247884      0.96420561525478
  F           1.71015543163560      1.38504714596559      1.05386731839737
  H           1.50977373288601      0.00059236377343      2.45020596377022
  F          -1.58846952892971     -2.54809103789135      1.03965372531500
  H          -2.57226422638862     -1.14424437578875      0.02754652049674
  H          -2.77363337507751     -1.13616480519341      1.80461659128599
  H           2.38854683939080      0.41320308742270     -1.43533972554528
  H           1.53624350068445     -0.23604626352521     -2.83661014103291
  H           1.96820424211869     -1.30340013531506     -1.50511529618884
