23
Coordinates from ORCA-job NEB_product E -40.958217309580
  C           1.99871967270936     -0.29590229828980     -1.95818341126589
  C           0.71910116936928     -1.12094189555317     -2.04123705418817
  C           1.82696986898155      0.79218633112013     -0.88628815452237
  H           2.83996315138756     -0.92077468750262     -1.64309217309350
  C           0.95748133794780     -2.61531729915320     -1.87740163021148
  C           2.30696840072391      0.33173894777520     -3.34206366246073
  C           3.56427096840022      1.14844961382440     -3.26060444005138
  C           3.61476425332763      2.44901637747608     -3.47206887013675
  O          -0.36324876539831     -0.63870781297852     -2.20865474045526
  C           2.45919436165798     -0.75510838435640     -4.40690284999255
  H           1.46649385819795      0.97866713344557     -3.60939293581076
  H           4.45991723441923      0.59171653673130     -3.01709286465837
  H           2.73062066283942      3.01930356004380     -3.70352820828436
  H           4.53830321009017      2.99811598196366     -3.41145994343692
  F           3.03832745709373      1.17595220227945     -0.41175348415346
  F           1.23583678045879      1.90275346633460     -1.36172815893014
  H           1.23540245531047      0.44424698958997     -0.02345145748455
  F          -0.19374800082051     -3.32818720279065     -2.02965494776153
  H           1.34031221827658     -2.81940916100823     -0.86946536289308
  H           1.67283334627464     -2.97735316387591     -2.62444242936018
  H           3.24164637939090     -1.46074206399354     -4.13240252551049
  H           2.73460544283106     -0.29503029104760     -5.35268716832345
  H           1.52556453653058     -1.29387288003452     -4.55084352701460
