17
Coordinates from ORCA-job NEB E -33.654817494070
  C           0.78297486216312      0.64951110467368      0.29837425938746
  C          -0.55289956228527      0.36195201492251      0.61194920480945
  I           1.04887928923319      2.52956920326612     -1.15416284254606
  H           1.34125571085518      1.04295514164134      1.14035797971065
  C          -1.17932636340698      0.80661734149920      1.89153831826149
  C           1.50753381805319     -0.48241259123853     -0.47065403418855
  C           0.58672840718850     -1.07419433957447     -1.44939322982822
  C          -0.86288482198976     -1.05332039561030     -1.26383040610022
  O          -1.39954338137278     -0.33413252668846     -0.18510542926891
  H           2.41466890318537     -0.11827936816926     -0.96090913253354
  H           1.82423435997340     -1.20455529035011      0.29385436252065
  H           0.93714961364164     -1.29284401654134     -2.44312385988314
  H          -1.26028794625973     -2.07217626961657     -1.13658865171389
  H          -1.33896597230038     -0.66084525997238     -2.17465884494412
  F          -0.59684819167609      0.18460807381816      2.96432888782597
  F          -0.99690519080714      2.12984071690666      2.11807692296865
  H          -2.25576353419545      0.58770646103375      1.91994649552232
