17
Coordinates from ORCA-job NEB_reactant E -33.688632587930
  C           2.20763808041765     -0.51402261826913     -0.13355304596643
  C           1.55884525951091     -1.62975043668190      0.19451117041692
  I           3.11517636654253      0.06554598604225     -1.93452015579216
  H           2.28436727645678      0.27174450648989      0.59637112681158
  C           0.96580100056428     -1.69355822086121      1.59998227420798
  C           4.32523485033922     -3.37184053431786     -2.30245006278196
  C           3.38614755526945     -3.48710227635308     -1.38379277482759
  C           1.93386767204856     -3.19132298993099     -1.61949094865316
  O           1.26929158228660     -2.77735052349762     -0.43535707112282
  H           5.35063201831150     -3.62265587797131     -2.09634694404999
  H           4.10605752314300     -3.02508749427630     -3.29869952974791
  H           3.61267089673342     -3.83651675900280     -0.38509416763233
  H           1.41148747317721     -4.11835623450862     -1.88346276062316
  H           1.79143846571093     -2.47552589046135     -2.43422508851894
  F          -0.35751334121669     -1.95387322208491      1.54950172276755
  F           1.53223614319919     -2.70593939808734      2.29672410218405
  H           1.10842117750548     -0.76658801622775      2.17440215332836
