17
Coordinates from ORCA-job NEB_product E -33.704664126690
  C           3.23975241254772     -1.45819472475766      0.11509604260137
  C           1.77201588117378     -1.23877106232040      0.31715943941423
  I           4.13105610240164      0.39060286793871     -0.55714545017253
  H           3.71435182925028     -1.69138287812635      1.07036075908893
  C           1.06618876066739     -2.34370790970084      1.14686522197248
  C           3.48324808408076     -2.61054789777648     -0.87152182238471
  C           2.81330152651771     -2.38389796848544     -2.19256203834054
  C           1.87232710619680     -3.16338183612982     -2.68821527867505
  O           1.13349735464875     -0.32367684215906     -0.11086347207435
  H           4.56299707123639     -2.70843013540346     -1.01773018157917
  H           3.11804443037699     -3.53715944087680     -0.42114267733565
  H           3.15159340436058     -1.51340831590769     -2.73931495045411
  H           1.51568021681540     -4.03388469158949     -2.16240781613335
  H           1.41950602638210     -2.96315938104883     -3.64343044268899
  F           0.70945120239298     -3.37161919422721      0.34534630172432
  F           1.88955478055385     -2.85994339082527      2.08840333502520
  H           0.16223381039687     -1.95513719860393      1.63830303001193
