20
Coordinates from ORCA-job NEB E -41.428907610320
  C           0.37683239222983     -1.20083939149378      0.16566197145250
  C          -1.03195105525554     -1.13866219475448      0.09813199985429
  F           0.93090300041218     -1.41825799380127      1.37905605927514
  H           0.92647309734985     -1.75205327643722     -0.59253736273464
  C          -1.70701287074643     -1.33008393503102     -1.22935580382276
  C           0.76776010757143      0.63077061507793     -0.09258375376836
  C           0.11362790851349      1.21856469548528      1.00570782403395
  C          -1.30072283344467      1.09509005019633      1.05594719891899
  O          -1.65069730589775     -0.49217021157002      1.04011303180387
  C           2.26002022585628      0.80243795007073     -0.21816942095574
  H           0.30244496905986      0.75924756929975     -1.06856932879729
  H           0.65913270622771      1.32782135313623      1.92987773490777
  H          -1.84222082736820      1.40630196297322      0.16488435032705
  H          -1.77785809419225      1.42860086451824      1.96884544299159
  H          -1.83646755819183     -0.36390711938516     -1.72491539200807
  H          -2.69750899774620     -1.75083932636475     -1.07408234790984
  H          -1.13054591432381     -1.98492526122960     -1.87412513984854
  Cl          2.56343617508577      2.50194786817358     -0.70980403057220
  Cl          3.14767968997782      0.49665227483267      1.27757391122613
  Cl          2.92667518488244     -0.23569649369665     -1.50165694437383
