20
Coordinates from ORCA-job NEB_product E -41.471233748550
  C           3.27868645216712      1.12182733157705     -0.98437214607194
  C           1.77733010769231      0.82629299974499     -1.13637566742108
  F           3.73609037645504      0.57986350898355      0.18798454809797
  H           3.85324872360921      0.65328416962526     -1.79258503892016
  C           1.34030892885533      0.67147087989148     -2.56595500053156
  C           3.47009823258399      2.65602530801380     -0.98483880988139
  C           3.03685713199949      3.22755334412567      0.33823909590049
  C           2.01016754097009      4.04325872861895      0.47148742847003
  O           1.04878731865730      0.73477930357600     -0.19053229705925
  C           4.91317840777773      3.05608224007686     -1.30395594825700
  H           2.84721839189155      3.07337037148830     -1.78364665461931
  H           3.60998377516403      2.89802474809205      1.19148971605558
  H           1.42287634294535      4.36963223714214     -0.37128119293388
  H           1.71380287764346      4.41746847880108      1.43498040060687
  H           1.86389602875298      1.36292930830084     -3.22040326758632
  H           0.26551535055808      0.80940592954651     -2.64432951667727
  H           1.58107745290096     -0.34212979848669     -2.88486979265665
  Cl          5.03731621881994      4.83394026320175     -1.29220746504802
  Cl          6.07977574172974      2.39825611933921     -0.14841195216388
  Cl          5.35818459882627      2.49616452834120     -2.93941643930325
