19
Coordinates from ORCA-job P E -33.595494589090
  C          -1.20302098139541      0.49602120144953     -2.40106997283357
  C          -0.40359433331524     -1.65302173202362     -0.49426642860128
  C          -1.25936928524082     -1.88913490377988     -1.70001252846205
  C          -1.61898135655474     -0.93996688187149     -2.54626325557595
  C          -0.68319353378230      0.79046548998886     -0.99154450764754
  C           0.28276608728369     -0.29418750062685     -0.53858270791029
  H          -1.58247452397294     -2.90822849567289     -1.85382725133485
  H          -2.22142530944341     -1.16656032552663     -3.41358724172732
  C          -2.37974483753741      1.41371337913881     -2.72558194535730
  H          -1.02700789412683     -1.70494129884582      0.40507005979507
  H          -0.41664534482865      0.71397502488594     -3.13521045726293
  H           0.34366764241337     -2.44551738519316     -0.41398743867314
  H          -1.52103980985531      0.80929809567919     -0.28931999290498
  H           0.71345863715721     -0.04502413146088      0.43413489799430
  H          -0.19734152753463      1.76685405175087     -0.97115067429653
  Cl          1.67378113768709     -0.36736388328706     -1.67074734677661
  F          -2.02742936045170      2.71751296411725     -2.60035893908512
  F          -2.78057490186193      1.25715671476268     -4.00972403512286
  H          -3.25519050464004      1.24203961651514     -2.07890023421705
