19
Coordinates from ORCA-job R E -33.495931447070
  C          -1.36869926393417     -0.04903116709337     -2.97346306413749
  C          -0.09454691632817     -2.53867077361814     -1.82385502413295
  C          -1.33594673981983     -2.11896725631700     -1.60086186949550
  C          -1.93666696051611     -0.90778430862892     -2.12851804783231
  C          -0.85723900620812      1.54299474694997      0.28572257215352
  C           0.05220700571710      0.59061227738624      0.32026906692908
  H          -1.98724538646311     -2.70894357993758     -0.96911876801916
  H          -2.94671230179541     -0.70939101645767     -1.79030162279619
  C          -2.06387814238260      1.17983155763155     -3.45413523611554
  H           0.27194710174851     -3.45350219987889     -1.39139170213023
  H          -0.36786061994688     -0.17710083921632     -3.35420766882270
  H           0.60015822685217     -1.98894794988178     -2.43361829718960
  H          -1.65149436189145      1.56174841093017      1.01101435856287
  H           0.06721202825304     -0.20888058242050      1.04472412484485
  H          -0.84220917517223      2.32441737816356     -0.45334395572938
  Cl          1.34889602338872      0.50755169250060     -0.80106465332966
  F          -1.44709516624857      2.30492692690651     -2.99278921695589
  F          -2.01761589564640      1.27145386077247     -4.80924862116214
  H          -3.12059044960646      1.23891282220910     -3.14895237464155
