19
Coordinates from ORCA-job TS E -33.480411681910
  C          -0.37432742265170      0.34666368066682     -0.92166419493000
  C           0.97273525653494     -1.84637432056961      0.31789432143409
  C          -0.36587357945699     -1.84809670513525      0.11243908827400
  C          -1.03214298536915     -0.78527993603636     -0.53279730350968
  C           0.31091491612266      1.05222109737252      1.05497345969508
  C           1.16575796446629      0.14727858028133      1.59304152601977
  H          -0.98092959005914     -2.58961877578028      0.60328004517328
  H          -2.11359960982549     -0.78150357179625     -0.51306658810327
  C          -1.14426515457580      1.48603976732939     -1.51813539945472
  H           1.43255551454464     -2.60469645842525      0.92990461642938
  H           0.66103471898653      0.31819284836837     -1.22208133149513
  H           1.64181677476521     -1.29944951250842     -0.31897286307444
  H          -0.69540980909350      1.09907130154087      1.43255245687818
  H           0.90034505914362     -0.53262776111543      2.38308953892526
  H           0.69003476738128      1.93132142004557      0.56488775407514
  Cl          2.87548729970247      0.33363217861246      1.38252011242166
  F          -0.44372748462713      2.64619663897547     -1.46469209125366
  F          -1.37950949140038      1.26533428368407     -2.84346770945926
  H          -2.12089714458835      1.66169524448998     -1.03970543804567
