15
Coordinates from ORCA-job NEB E -27.031128274190
  C           1.04029156037196      0.09685339065063     -0.83141360782894
  C           0.61190578847077      1.35503992392185     -0.35236121695234
  O           0.42193697619642     -0.42606547920711     -1.93349737607094
  H           2.11418433675069     -0.09981396587069     -0.78093520918175
  H           1.32005669580888      1.89701246695440      0.28540698284599
  C           0.33401140952764     -0.96426527880798      0.58622399739175
  C          -1.03440400745944     -0.66934861088353      0.54978461835921
  C          -1.42588457002179      0.63970281217394      0.87252804185901
  O          -0.63184430029851      1.63283646747834     -0.27363824736672
  F           0.71415025061608     -2.20434510343806      0.17826583672554
  H           0.95112372495092     -0.65823120590028      1.42637934617134
  H          -1.64121201129103     -1.24625247196915     -0.13234397848508
  H          -1.00478188219441      1.08721499303947      1.76557241988154
  H          -2.45916909875803      0.90478410176919      0.70218594371025
  H           0.68963512732987     -1.34512203991101     -2.06215755105885
