15
Coordinates from ORCA-job NEB_product E -27.069716389130
  C           1.61484596587961     -1.43035858209628      1.27323010977119
  C           1.59008112394772      0.07632719390557      1.18470209564513
  O           0.85638198163552     -1.99825074558141      0.25227612113233
  H           2.65352296790550     -1.78250869815190      1.18424052938809
  H           2.25090709743606      0.59994556460763      1.89531588654405
  C           1.12113093204785     -1.84544432984203      2.69476083081584
  C          -0.37435006722588     -1.87647923956162      2.75507662256868
  C          -1.10625914524341     -0.85561919430873      3.15700447576577
  O           0.88642040672809      0.65832822696670      0.40707987449688
  F           1.63450741418828     -3.08920265187887      2.98510367033253
  H           1.54899415147818     -1.16291786983866      3.44140417293976
  H          -0.81389935444265     -2.79864481283387      2.40575036333594
  H          -0.66375451408327      0.06677303520685      3.49776239698575
  H          -2.18080556996285     -0.89974580372536      3.15937716171934
  H           0.33287660971125     -1.28670209286802     -0.15248431144127
