23
Coordinates from ORCA-job NEB_reactant E -53.074421780960
  C           1.36493542789196     -0.08272759621764     -0.21735387416810
  C           1.41197072625101     -1.40793702004756     -0.39840694278824
  C           1.84336334453214      1.03925970281585     -1.07861771817078
  H           0.91013513123494      0.24886971047184      0.70194011179711
  C           0.84644656425921     -2.33471290001215      0.65999762232770
  C           2.84218036632520     -2.75553674457256     -4.75192482322943
  C           2.87021049813348     -2.78962057271894     -3.42902108973987
  C           2.46939461329467     -1.63936043456567     -2.56404797791673
  O           1.88558816976992     -2.18356848669190     -1.38648079773447
  C           3.26717342310012     -3.85618540413019     -5.65369732546694
  H           2.50682889672736     -1.87478073578004     -5.28229311457937
  H           3.19862591230620     -3.66770950057490     -2.89278938589489
  H           1.76201552517518     -0.98927178425031     -3.08634566603074
  H           3.36801693942366     -1.06386618220533     -2.30619371239280
  F           3.18192663722953      0.98023482390941     -1.34236007078000
  F           1.24149248406819      1.07209090461363     -2.30410583017580
  H           1.65469636328808      2.01330889414823     -0.60579751748301
  F           0.34128721615289     -1.66167121701447      1.73229410222216
  H           1.63418987534408     -3.00024063469697      1.02934761715861
  H           0.03403835012202     -2.93276368509055      0.23298838681386
  Cl          3.78932395194322     -5.31559747925273     -4.80633350083513
  Cl          4.62267218221911     -3.28912126896802     -6.67732980320220
  Cl          1.90718740120785     -4.29269238916901     -6.73116868973096
