23
Coordinates from ORCA-job NEB_product E -53.080114264330
  C           2.11075743803033     -1.71376243041395     -1.60708564480575
  C           0.71905790861115     -2.25147173614708     -1.23505631857277
  C           2.12077150362098     -0.22508007949991     -1.21462628885999
  H           2.89328969155152     -2.20365779912480     -1.02205719550453
  C           0.73607117056654     -3.12682745041521      0.00744731157566
  C           2.38812590228191     -1.88512633797696     -3.11702491012819
  C           3.55916946516457     -1.05157306044760     -3.56824893145472
  C           3.45931450721563     -0.09643273734045     -4.47159250405907
  O          -0.27081344638850     -1.93916689398263     -1.82671686887061
  C           2.65950116487350     -3.35281778914306     -3.45846251321540
  H           1.48828602900778     -1.57650410652344     -3.66214213615421
  H           4.50274025686157     -1.28153752016526     -3.09541277876577
  H           2.52090217238811      0.15035805117465     -4.93925019318501
  H           4.31358481296657      0.48624888318963     -4.76724462444613
  F           3.38837407244501      0.23728196280104     -1.11498974936035
  F           1.49911507875330      0.54311042684410     -2.12581381240442
  H           1.63492645490933     -0.04961794465333     -0.24034451963575
  F          -0.52217436000033     -3.49269722289130      0.37548749221670
  H           1.18003617000427     -2.57880919261897      0.84818899879886
  H           1.30880451380076     -4.04239694940227     -0.17984912141070
  Cl          1.26336143626074     -4.39108776395344     -3.06597507425538
  Cl          4.06807813141601     -3.97850387109360     -2.56729475325622
  Cl          2.98921992565925     -3.50652843821616     -5.19743586424623
