22
Coordinates from ORCA-job NEB_product E -44.022551703710
  C           2.78204121917544     -0.86607380793696     -0.86777332633371
  C           1.50086225612202     -1.12778624043202     -0.11467946221715
  C           2.84514802767179      0.58882534678743     -1.32437455946757
  H           3.61877140689078     -1.07652087239321     -0.18745260614481
  C           1.39726136363147     -2.51250364134536      0.57771884542763
  C           2.90742500355425     -1.86311305408830     -2.04078255566836
  C           1.94646640242431     -1.60675466750948     -3.16135893457328
  C           0.91459367108009     -2.38578020615583     -3.42442589147704
  O           0.58893522901489     -0.35790716151703     -0.01819542695815
  N           4.31526351655906     -1.81140001721854     -2.56208978978014
  H           2.78736080220233     -2.88956199263963     -1.67334395986402
  H           2.15299849824858     -0.73448467506622     -3.76368811759334
  H           0.69540414611450     -3.26630912899617     -2.84357991040482
  H           0.23842053341576     -2.16547637661896     -4.23118813310646
  H           1.96930818822867      0.84396592819985     -1.91458361790544
  H           3.74297359534561      0.76824133495756     -1.90963989801888
  H           2.86639077464930      1.24245465886771     -0.45639917572897
  F           0.80648598921181     -3.39798299321345     -0.26264687833813
  F           2.61279616407905     -3.02382882613773      0.87302934877034
  H           0.79716049953904     -2.46034562676927      1.49767949020643
  O           5.19909145705451     -1.65500424853790     -1.75868984140469
  O           4.45894125578673     -1.95905373223649     -3.74723559941946
