22
Coordinates from ORCA-job NEB_reactant E -44.009257924850
  C           1.91295381167136     -0.21531251539003     -0.17458470000808
  C           1.46210384811676     -1.45594216886177      0.00216837852475
  C           2.33624362478342      0.54907577013365     -1.38703184348022
  H           2.00583989657742      0.36862842612038      0.73144100231427
  C           1.11267185985943     -1.92254178370438      1.40491577184939
  C           3.41868465197987     -2.22559110893049     -3.77559456290059
  C           2.92173092522123     -2.31068784819200     -2.54687623284690
  C           1.47094485836432     -2.44563168792324     -2.21652250820318
  O           1.20776493307573     -2.49957555753085     -0.84088108641477
  N           4.83069285636390     -2.10283892749281     -3.99313650465968
  H           2.84183299722127     -2.24307766880009     -4.68756538754130
  H           3.60678044955835     -2.29807890193628     -1.70647767973724
  H           1.10691358937806     -3.41098735816827     -2.59016500551075
  H           0.87608871762712     -1.66012797209723     -2.70337439094102
  H           2.20994394125437      0.01878893122503     -2.32195332794231
  H           3.38715875690385      0.82195394261689     -1.28516855165369
  H           1.76530589849946      1.47604184264371     -1.43549839930130
  F          -0.19722843747423     -2.25799357828489      1.48898884916512
  F           1.81030174393095     -3.03577785668331      1.73055185933529
  H           1.31417694611909     -1.16115938601281      2.17256078265634
  O           5.55572108765975     -2.01178778495011     -3.02720672206875
  O           5.19887304330852     -2.09147680778110     -5.14728974063537
