18
Coordinates from ORCA-job NEB_product E -30.535497875860
  C           1.71888031587488      0.53291542131626      1.58431040903910
  C           2.15270450495269      1.88306805059390      1.08270700113157
  C           2.70911443853916     -0.54571533424366      1.13377953481608
  H           0.73790111232571      0.31677915993187      1.14554389403989
  Cl          2.16276199482711      1.96345171834894     -0.68504970930544
  C           1.56200819551915      0.59401672182324      3.12439969045490
  C           0.79812176376110     -0.59338065023271      3.65071843719442
  C          -0.40023967156454     -0.50169410911298      4.19355177537030
  O           2.45011096082916      2.83772701390505      1.71587165453625
  C           2.85738751136224      0.64257392902348      3.76842502182902
  H           1.02891359282560      1.51648774037828      3.38511332087027
  H           1.29850760714630     -1.54770239628920      3.56619893734104
  H          -0.90981943879349      0.44242767684654      4.29875704208049
  H          -0.92337410604300     -1.36874684643713      4.55783900815236
  H           2.36552452676874     -1.52435544842649      1.45761694267056
  H           3.69260708061677     -0.36168558587645      1.56102706850746
  H           2.79134553311424     -0.55174811705132      0.05046918968107
  N           3.87304407793819      0.64208105550238      4.29112078159068
