18
Coordinates from ORCA-job NEB_reactant E -30.515652745550
  C           1.51976721353739     -0.17865221214698     -0.31101891444439
  C           1.16880223405297      0.68858448066973      0.62913027079921
  C           2.50263517262088     -1.28067953146002     -0.09109447672282
  H           1.09555373443995     -0.08226130541760     -1.29728709130401
  Cl         -0.00749888252498      1.93682041620267      0.26693009412763
  C           1.24175261450108      0.66970037109601      5.39867481181119
  C           1.70647740038632      1.00466139447428      4.19664467053595
  C           0.87567479795620      1.03054088192468      2.95995841976166
  O           1.71812515881296      0.72296784569243      1.85818101897671
  C           2.04897300824420      0.68901671049322      6.55255449966165
  H           0.21273076011540      0.37128241489348      5.55507937810190
  H           2.73908053081623      1.29357651550115      4.05933085062110
  H           0.45082055116623      2.03836471329898      2.82845108408149
  H           0.04423114213068      0.31489580070545      3.01833884651182
  H           2.79534555701868     -1.32821968250932      0.95326462012698
  H           3.39167867861156     -1.11420479778791     -0.69788165460404
  H           2.06737633560216     -2.23262179450446     -0.39107904442745
  N           2.69297399251205      0.69602777887423      7.50102261638539
