22
Coordinates from ORCA-job NEB_product E -32.625873554040
  C           2.52995184249540     -0.45366444224837      1.10749630710363
  C           1.15155824817569     -0.13121241316318      1.69428095952895
  C           2.36462633813541     -0.77483969246644     -0.38188565533221
  H           3.18272802634816      0.41804665161289      1.22028349924190
  N           1.17448162888377      0.80365172846886      2.67320654377215
  C           3.09465173284561     -1.59104762987352      1.97817700225665
  C           2.54872781634545     -2.93809983107951      1.64983455519116
  C           1.75488044067912     -3.61267063493399      2.46012287567948
  O           0.13151780233624     -0.67631946956998      1.34720997672657
  Cl          4.89477852921980     -1.64526719999143      1.85176834301000
  H           2.90326868647625     -1.35811772380464      3.03084716652718
  H           2.84919132407334     -3.35117730417019      0.69856422101690
  H           1.44719347160675     -3.21924394289885      3.41494079203197
  H           1.36556376562149     -4.57937653268362      2.19334544948183
  C           3.67571425517407     -1.01378193798258     -1.11806022814308
  H           1.85299996191229      0.07719501740233     -0.83734739791152
  H           1.70202175437084     -1.63476377508162     -0.48341997951321
  H           4.35021761126514     -0.17086350994943     -0.98262176247374
  H           3.48336267220495     -1.13086496343515     -2.18210375308675
  H           4.17700567441095     -1.90898970321850     -0.76301773077009
  H           0.30739574914246      1.06212653671748      3.11513414346452
  H           2.01486266827679      1.27798077234944      2.95044467219770
