18
Coordinates from ORCA-job NEB_product E -36.874700843640
  C           2.40205719893419      0.63500383622446      0.81181308740673
  C           1.26003691135792      1.13577454836740     -0.01578855263463
  F           1.90729172728039      0.17918938532038      2.00661505774332
  H           2.91275490895989     -0.20574173434389      0.32712890107460
  N           1.65576940981852      1.36677869112740     -1.49811766275807
  C           3.44070315118966      1.76736247290811      1.08197125362315
  C           2.74574760203075      2.94125719137358      1.72380404918486
  C           2.66747887416255      4.13628899142764      1.17046434609064
  O           0.15151229537968      1.39948041621966      0.29600250184682
  N           4.49699504479833      1.18310779856803      1.88257180694805
  H           3.87292834096023      2.05424856416398      0.11737454145412
  H           2.31823724754671      2.74324542414086      2.69760223992927
  H           3.09106842795238      4.34260704731581      0.20047242678892
  H           2.17843998008365      4.95861811550206      1.66267670917711
  O           0.80532653905886      1.85697567893664     -2.18560583454471
  O           2.77216538630477      1.04391182969714     -1.82739705496599
  H           4.15241110376815      0.93399718095580      2.80386942242143
  H           5.26847585041335      1.82959456209494      1.98714276121439
