26
Coordinates from ORCA-job NEB E -56.247390462700
  C          -0.05323017299229     -0.30276900400415      0.72292601368842
  C          -1.55770142460071     -0.37123060583675      0.92454587728638
  C           0.60323956770657      0.16963234428188      2.03548871765633
  H           0.33826642910433     -1.30382019699931      0.52460202062048
  C          -2.14546560059271     -1.79578036567126      0.84135899393348
  C           0.27004291120411      0.62285931210829     -0.49098130007568
  C          -0.94086000907745      0.81745121661858     -1.36222676232236
  C          -1.47261420731108      1.99599591083097     -1.62035801807580
  O          -2.25877069622833      0.56373359852892      1.15523779995707
  C           1.39071201508592      0.01603188655865     -1.34958588040756
  H           0.58474176227740      1.60091310137562     -0.11886646526273
  H          -1.34429646058742     -0.08212739449350     -1.80688816738715
  H          -2.32407561391373      2.10462041904873     -2.26889569364482
  H          -1.08172414168435      2.90142546841252     -1.18725583683003
  F           1.16608582186048     -0.87125206481412      2.67273539988489
  F           1.57922480045934      1.06559511010673      1.86322308856251
  F          -0.25057292869838      0.71905065169029      2.90213364869949
  Cl         -1.61851004502494     -2.62953128364799     -0.62899986977921
  Cl         -1.51761287229579     -2.66327550009858      2.27250673352850
  Cl         -3.90603012755639     -1.74214271359190      0.89071990318283
  C           2.73286186272597     -0.10343060686232     -0.63935875220830
  H           1.50939779576626      0.65741944370548     -2.22519319450326
  H           1.07028367642175     -0.96688207433889     -1.70343617098212
  H           3.07361526459261      0.86972145226864     -0.29586111748812
  H           2.67803416419286     -0.76926362561418      0.21833679342087
  H           3.47495822916600     -0.50294447956232     -1.32590776145410
