26
Coordinates from ORCA-job NEB_reactant E -56.243535018080
  C           1.27954759846752      0.08363347211918      0.05325080784479
  C           1.30910187879993     -0.72160493450913     -1.01862026413793
  C           1.83428569850145      1.45383555141096      0.23846901860725
  H           0.77714141158691     -0.26722994488835      0.93984057713702
  C           0.68388799304446     -2.10819777707459     -0.91971261884040
  C           4.46054787461977      0.19654698900447     -4.31504084760250
  C           3.17894345796702      0.18609959528438     -3.99011851516308
  C           2.65981393432394      0.50498304586485     -2.62261644450413
  O           1.84585373219301     -0.60473303539617     -2.22267478096194
  C           4.99547184235231     -0.11330977304058     -5.67424480690208
  H           5.20513973399836      0.44181642998678     -3.56808410734951
  H           2.41982814265132     -0.06569834833662     -4.71650878370850
  H           2.04570147232535      1.41215680572784     -2.65657844595064
  H           3.48681417292531      0.64044390967937     -1.92111598790369
  F           3.18142394213133      1.52141969238224      0.18035580675883
  F           1.38615626117637      2.35962581321071     -0.65393943148357
  F           1.49812315733218      1.92844874753765      1.44324388488814
  Cl          2.01305845218862     -3.24864885185405     -0.56973253662966
  Cl         -0.53711228676865     -2.25894124772590      0.34261701956754
  Cl         -0.05963558590951     -2.55333540077638     -2.46433754430992
  C           5.96827647050037     -1.29134350356647     -5.62134553792380
  H           5.52232499930693      0.76532493215099     -6.05677392744703
  H           4.17391038549087     -0.34105089984297     -6.35483045536342
  H           5.46312814929654     -2.18051704256977     -5.25185927879403
  H           6.36103948122872     -1.50262532714584     -6.61270767402833
  H           6.80232763026960     -1.06909889763262     -4.95973512579942
