67
Coordinates from ORCA-job A3R E -96.361336360330
  Ru          1.17169032145327      3.64213429033097      0.08626937310411
  H          -0.30690914981237      2.70830676642148     -0.32226784033704
  N           2.00095384278866      2.61498487238466     -1.53104029363739
  C           1.66779978753673      2.90264854503036     -2.80000843242725
  C           2.91499732450523      1.62052396930537     -1.28668315839608
  C           2.21241073777954      2.25021328648337     -3.88370513277607
  C           3.51402876799430      0.93668139273992     -2.38241600588186
  C           3.16698921464046      1.24698582098860     -3.66102286532822
  H           1.90777365929774      2.51299527925084     -4.88421999978318
  H           4.24216375159353      0.17106660818777     -2.16548557338356
  H           3.61257373063283      0.73155432753820     -4.49874267897525
  P           0.65716902302848      5.14570127976997     -1.59616965481246
  C          -1.03778498958958      5.98966146133711     -1.71204897349832
  C           2.03363382770741      6.36704704210730     -2.05425608513768
  P           2.35556435637080      2.07829330228871      1.26566267709687
  I           4.05167607718190      3.14751228037749      2.72685401958912
  I           1.65378303995535      0.32268580157581      2.86255760814303
  C           0.63190063597756      3.97520330156933     -3.02457086813891
  H          -0.36178235333620      3.50685838620793     -3.04813075545744
  H           0.78895727327139      4.47592023834488     -3.98366563916416
  C           3.24816874334765      1.28053489473045      0.01971043459473
  H          -0.12006681471968     -0.10283037618550      0.12579794110104
  H           3.96994850809982      0.50525048740913      0.23008488934615
  C           0.39661572151392      4.47870634559023      1.53721636391958
  O          -0.09979592865376      4.97777398944664      2.45049035360212
  H           2.42864939448571      4.45024650901090      0.29323349162338
  C          -1.51963320323973      6.28038198230075     -3.13233886277598
  C          -2.01889532692063      5.01114469314478     -1.05986959741000
  C          -1.01921320274872      7.26313359234534     -0.86801458085786
  H          -1.63319320981416      5.36493458029906     -3.70917076996836
  H          -2.49646363221622      6.76058152830681     -3.07920209051192
  H          -0.85208039886934      6.94696195817162     -3.66668984471901
  H          -1.72949590831540      4.81522209360271     -0.02507324210408
  H          -3.02047485137787      5.43975176345771     -1.05171919304744
  H          -2.06754614363320      4.07083513348393     -1.60861994459803
  H          -0.54008739835844      7.07023885361509      0.09244380541215
  H          -0.49508626372289      8.07096900121149     -1.37065364826329
  H          -2.03879930285800      7.59711272924832     -0.67868793693904
  C           3.27601087079827      5.52859970734621     -2.37414039217847
  C           1.72663268089525      7.25341966226631     -3.26039764215011
  C           2.34252221877533      7.23236246415378     -0.82971539596541
  H           3.15457970931714      4.95338622070850     -3.28998904707547
  H           4.13376113249657      6.18683250310221     -2.50365777378781
  H           3.50422385103329      4.84577965137898     -1.55459271994309
  H           0.94571565034118      7.97699163303410     -3.04338358267183
  H           2.62552457829625      7.81123136709129     -3.52077887063101
  H           1.44042388622651      6.66611067434303     -4.13108485055826
  H           1.58024017524923      7.98567170860513     -0.65866703966885
  H           2.42190278295893      6.60881439300588      0.06224952788700
  H           3.29284897744141      7.74374847460971     -0.97192092997642
  C          -0.81851415746082      1.70098381987051     -0.20109366591951
  O           0.24213712240133      0.78138876632388     -0.02416284949549
  C          -1.56808522640512      1.39984235112814     -1.48505021014986
  C          -2.91407628372051      1.70415045693014     -1.65710513416992
  C          -3.54076910513945      1.43880095177409     -2.86268471899091
  C          -2.83687145967284      0.86811789365255     -3.90932959334580
  C          -1.49979570586097      0.55114723746362     -3.74206346260633
  C          -0.87202245844561      0.81318493449477     -2.53843102744508
  C          -1.70772609544969      1.74700894320028      1.04084467329443
  H          -3.48460966172195      2.14491396369100     -0.85469282679183
  H          -4.58636875973428      1.68047147452341     -2.98179878810805
  H          -3.32971270323805      0.66691442535146     -4.84840935880461
  H          -0.94031029212936      0.09981120102576     -4.54759137245230
  H           0.17141484523161      0.56109715349162     -2.41270876445570
  H          -1.08543042156867      1.84198577761148      1.93092003846504
  H          -2.28456568788672      0.82585042708987      1.12049008027231
  H          -2.38943425971760      2.59249833828548      1.01399645494470
