67
Coordinates from ORCA-job TSA2S_3S E -96.331604784790
  Ru          0.22096409015977      0.48782531259910      0.94728246320854
  H           0.41202442063213     -1.26264838704998      0.64054665197697
  N           1.83896035344226      0.59283505402935     -0.41502014692708
  C           1.65104807995377      0.80003030634505     -1.72350468661211
  C           3.09837108143530      0.56125510049342      0.07384577095063
  C           2.70047103271481      1.10323245941958     -2.57540167997693
  C           4.19333854580274      0.88018424125112     -0.73604030921370
  C           3.98952190895148      1.18106647909651     -2.06272688045858
  H           2.51144844835806      1.26907470842105     -3.62428645717328
  H           5.18274338763619      0.87809021395989     -0.30773512506503
  H           4.81761218312010      1.44347226381471     -2.70270642086891
  P          -0.97360578654789      1.05103239154404     -0.96490167098728
  C          -2.53845664011616      0.12604261408467     -1.51028601812674
  C          -1.19307578258107      2.91699849017360     -1.26538803654300
  P           1.91369369326372      0.49873346090249      2.47774661356680
  I           2.53107174449597      2.78820488828314      3.22470150309429
  I           2.41052331477632     -0.69863597475093      4.53781268890683
  C           0.26322882528012      0.60161414273386     -2.26248315908408
  H           0.13942852990069     -0.47211588194897     -2.45633255960627
  H           0.11341402754653      1.13932389329062     -3.20169521072578
  C           3.26963439930537      0.01733420130874      1.41615616555906
  H           2.92602123116458     -1.22571636096141      1.10310789361950
  H           4.27733063100538      0.06700282229314      1.82701518253412
  C          -1.20893715009369      0.47525461541283      2.11379213874256
  O          -2.11927010539352      0.55503934029956      2.81609540629141
  H           0.27206676059084      1.98979807512698      1.13002069066658
  C          -2.79214981023111      0.08012978703843     -3.01617624453290
  C          -2.33384241097836     -1.30646661391284     -1.01424386261335
  C          -3.74016788780885      0.71239041405197     -0.76985032957104
  H          -1.95246163717860     -0.35827628427928     -3.55069248125533
  H          -3.66381138345477     -0.54730824840272     -3.20101731497183
  H          -2.99793884182980      1.05865288865978     -3.43429109320801
  H          -2.15634918313133     -1.31353380856209      0.06324457567125
  H          -3.22112161620666     -1.90536116760354     -1.21522464566461
  H          -1.49264130200679     -1.77888899996038     -1.51648119835207
  H          -3.49704453605058      0.86377053112244      0.28267563687731
  H          -4.05855037363591      1.65815111580111     -1.19950279357788
  H          -4.58183779431972      0.02308833327136     -0.82755762938382
  C           0.20691770986745      3.53895898128290     -1.31817121033027
  C          -1.91249701411254      3.26663469145753     -2.56767963130528
  C          -1.95009080694477      3.51941669889595     -0.08008842950219
  H           0.73881950694910      3.26794568331431     -2.22784024680793
  H           0.12121246778225      4.62400526593091     -1.29264473907543
  H           0.80357070976684      3.24007669317973     -0.45659055284174
  H          -2.96670118082552      3.00826289469865     -2.52991151414912
  H          -1.84670581974848      4.34319905895316     -2.72176450713923
  H          -1.45394673060195      2.78303030774069     -3.42801547651701
  H          -2.99348550040131      3.22010065633999     -0.06976349247562
  H          -1.49327688311454      3.20978131122975      0.85977292589645
  H          -1.91214676554119      4.60609884888872     -0.13323844210633
  C           1.06614443772894     -2.37222220797679      0.72851328633001
  O           2.33375638211141     -2.20320210962871      0.40178658862732
  C           0.80420225048352     -2.88052701328683      2.13291943419721
  C          -0.36108886071359     -2.60733618561167      2.83284602443188
  C          -0.57709908729154     -3.16677723554254      4.07909022424218
  C           0.36764539450076     -4.01523380299089      4.63171049491926
  C           1.52757871325627     -4.30254738662773      3.93325350383313
  C           1.74431823324858     -3.74004322576189      2.68907091807747
  C           0.36278137119226     -3.32797047590473     -0.24765819146651
  H          -1.10827118880757     -1.94904817912165      2.40103286403793
  H          -1.48327802317244     -2.93606058802438      4.61944421850353
  H           0.20080164820395     -4.44698483596446      5.60678062403481
  H           2.26913157191088     -4.96094630127308      4.35981270112547
  H           2.64765459549566     -3.94826210221499      2.13364981755124
  H           0.49386270791184     -2.98496859395099     -1.27210003202421
  H          -0.69188614981139     -3.43905202651531     -0.01171234139718
  H           0.85042186270578     -4.29700523891201     -0.15300224583609
