19
Coordinates from ORCA-job R E -20.994816558340
  C          -1.20518299716610     -0.01648800002549     -3.11623437374309
  C          -0.10134258425310     -2.56320234155356     -1.91106700552297
  C          -1.27074789884430     -1.99748008141972     -1.63465233372534
  C          -1.86394852272049     -0.88253660799402     -2.35614057348810
  C          -0.93004035425843      1.49432162332630      0.19620646222273
  C          -0.16938522149755      0.45420590459714      0.47759828949445
  H          -1.86766490065595     -2.38762123336808     -0.81965279465951
  H          -2.93231303331724     -0.76653965850070     -2.22305009250976
  H          -1.70800065144343      0.79004108775537     -3.62132318015287
  H           0.28237549444061     -3.38658619108351     -1.33300658570409
  H          -0.13838762554791     -0.06997132181637     -3.24783119806179
  H           0.50987591904363     -2.23346379236962     -2.73400833530964
  H          -1.95141264459542      1.56447356156336      0.52900690830252
  H          -0.56526309270572     -0.36527237788839      1.06380716272815
  H          -0.56194116122251      2.32305227393356     -0.38638937706289
  C           1.24918701602934      0.30004317521808      0.04453056776565
  H           1.58352873096024      1.17453336257650     -0.50802989912601
  H           1.34945814908637     -0.57828122351196     -0.59392762991289
  H           1.89693537866797      0.15530184056113      0.90858398846547
