18
Coordinates from ORCA-job NEB_product E -42.173241558940
  C           1.57105706128157      0.85412864586248      1.46344220616081
  C           1.97382368697663      2.00617574427330      0.56748554502878
  C           2.51412863050490     -0.33286027675322      1.21388256458820
  H           0.56182132335117      0.51901137599963      1.20194206352862
  Br          0.90969998017806      2.09264866628125     -1.06446540728200
  C           1.53851837719952      1.34901346256361      2.93704699871423
  C           0.57095894051762      0.53679466795462      3.77608520881943
  C          -0.73299982445315      0.55221834776186      3.57747437666789
  O           2.79265669922264      2.82841552019321      0.77348717987776
  C           2.83594075603979      1.36983232046340      3.57870207107343
  H           1.18463934448873      2.38967403896248      2.91407319641777
  H           1.00880838758577     -0.05335887978147      4.56672278317016
  H          -1.19448509193544      1.14296680082070      2.80200524960770
  H          -1.39796623877925     -0.03045838508387      4.18925861124871
  Cl          2.27515837534786     -1.58603837938262      2.45006834457659
  Cl          2.13120338424404     -1.05544732794677     -0.37482887699372
  Cl          4.22849225162795      0.14974095423110      1.20738586672192
  N           3.81274395660158      1.39554270358030      4.16883201807373
