19
Coordinates from ORCA-job NEB E -47.123853442590
  C           1.12755970050359      0.59685172143864      0.00608153956910
  C           0.52390865875853      1.75488487372372      0.54616751167769
  N           1.13264585304120      0.56218506627598     -1.45767945982673
  H           2.09828025932657      0.31234605296316      0.40368934009266
  Cl          1.17683351058811      2.35757711408332      2.05198278077460
  C          -0.15148156764479     -0.71921410351442      0.46166428173656
  C          -1.32414722685795     -0.21627568240231     -0.12463976761328
  C          -1.80433862803791      1.04436169525559      0.34058576956239
  O          -0.62951537522474      2.14460442520334      0.18810779940662
  C           0.31594485415209     -2.09802548722207      0.07851121523147
  H          -0.05100866789256     -0.58802117973994      1.53977429028648
  H          -1.63248718611139     -0.56102571642143     -1.09937932097819
  H          -1.97100415565283      1.13078338522016      1.41206013150476
  H          -2.60595502035881      1.47960667887307     -0.24350322838047
  O           2.19130112803356      0.28964330281485     -1.96851204328999
  O           0.10430967436175      0.82762784512777     -2.02693759862260
  Br          2.12042989222887     -2.46202835544827      0.74316929119410
  Br         -0.89061313054856     -3.38093487930441      0.97733755635077
  Br          0.26933742733527     -2.47494675692676     -1.82848008867594
