19
Coordinates from ORCA-job NEB_reactant E -47.157171941970
  C           1.78261080985448     -0.00325465294510     -0.07633365596328
  C           1.22326468683975     -0.65365135933214      0.96523684861444
  N           1.99134005826096     -0.60016265722120     -1.34639342105704
  H           2.10621189197061      1.02063499633130     -0.00079551391222
  Cl          1.01993212465224      0.20595225248644      2.45469249934411
  C          -0.16815836462000     -4.97534291240345      2.39210502649192
  C          -0.09394411617232     -3.94723265731014      1.56236391306319
  C           0.22812207158456     -2.55632893047615      2.00522471079745
  O           0.83079684865668     -1.90048345880142      0.90102139309452
  C          -0.51583669492248     -6.36620860107875      2.02834570715682
  H           0.01912530496649     -4.85092907580212      3.45272963141401
  H          -0.26177907644060     -4.04279021042026      0.49851362141730
  H           0.90329966693467     -2.55387827100650      2.86934398259489
  H          -0.69729032445280     -2.03239171886592      2.28641120680183
  O           2.51616505928616      0.10406554628721     -2.18446698217856
  O           1.64245097764199     -1.74763864248072     -1.52371973159633
  Br         -2.11864071065050     -6.90660711861100      3.04913516615338
  Br         -0.87938047025106     -6.65775553449492      0.14687777644874
  Br          0.96121025686117     -7.55899699385514      2.56170782131481
