19
Coordinates from ORCA-job NEB_product E -47.162485419520
  C           1.61263076221191     -2.41231934460782      0.79655259632904
  C           1.36943957238557     -0.98155751002445      1.24679289907871
  N           1.33057735236102     -2.47606704207947     -0.67894886936301
  H           2.67634647102531     -2.65020170913026      0.92877370009583
  Cl          2.05582616509076     -0.70096249464343      2.84409833642434
  C           0.73584857033035     -3.36291321837129      1.64811415833004
  C          -0.73300476353966     -3.23404490339070      1.33170361970044
  C          -1.55231803654991     -2.49608448978163      2.05643375561348
  O           0.81181278545201     -0.12825257907359      0.65480062142522
  C           1.18207429088926     -4.82136884212335      1.55482915200776
  H           0.89523122458694     -3.05919994124024      2.69262008803533
  H          -1.09360469043938     -3.77498074863732      0.46907229416410
  H          -1.21896416537173     -1.94166647526375      2.91863143613752
  H          -2.59455442275105     -2.41625644748225      1.80703267151627
  O           2.29540118341855     -2.63507391141965     -1.37740833761704
  O           0.19611626373689     -2.32932213200118     -1.03365084132139
  Br          0.05188988227821     -5.88295675437446      2.74857452913471
  Br          1.03995792346795     -5.56314719839915     -0.24695120590835
  Br          3.03719363141699     -5.02822425795600      2.16442939621703
