21
Coordinates from ORCA-job NEB_product E -52.455417558070
  C           2.17082268488181     -1.99324734429737     -0.33665161709806
  C           2.35732927370200     -1.71484022108050      1.17368370998733
  C           1.60124224000427     -0.70934476736769     -0.92103581382354
  H           3.14099658126913     -2.18594892744856     -0.81015852080220
  C           3.75255899463670     -1.62497092946894      1.55976827473944
  C           1.25005581816431     -3.22510531561317     -0.49523900121677
  C           0.68755626627074     -3.40478451129435     -1.87936558403860
  C          -0.60591276467977     -3.37314621287163     -2.14182059756948
  O           1.43021465547941     -1.51439904378689      1.90880453751798
  C           2.02649605779196     -4.49145897955919     -0.11428223595249
  H           0.42190039398869     -3.12489209181632      0.21873566408852
  H           1.41104302957236     -3.60283218406034     -2.65654070756268
  H          -1.34450468545698     -3.19205269592732     -1.37836158200245
  H          -0.97385208625032     -3.51720601423292     -3.14209209600843
  Br         -0.22381235997032     -0.38043989600833     -0.37997371570458
  Br          2.70024377194985      0.80847856679728     -0.29169512111214
  Br          1.69122836349190     -0.66584772677990     -2.86546678935580
  N           4.86115203890427     -1.56041269431468      1.83290099856452
  Cl          0.94723117655271     -5.89755771704599     -0.20312431134316
  Cl          3.41123070854567     -4.76486506050624     -1.20225730933152
  Cl          2.66167984115160     -4.37732623331695      1.55697181802411
