18
Coordinates from ORCA-job NEB E -37.134174106790
  C           0.14804322165682      0.06046269491499      0.43133420829200
  C           0.77370927202990     -0.05707677621914      1.70149726065341
  C          -0.32673801065684      1.14374258055377     -0.27768923260707
  H          -0.36908009041383      2.17342417667258      0.03180731267965
  C           0.99093356484722      1.22115278031074      2.52753818727436
  C          -0.05013684307597     -1.16712839520038     -0.42442287166604
  C          -0.65291583301390     -0.56639224908227     -1.68560126005164
  C          -1.31473322863544     -1.26768579711329     -2.67878756944550
  O           1.15767256365928     -1.10717773142130      2.18251825146501
  H           0.88864623457289     -1.69802515038293     -0.59912674362470
  H          -0.73809633544916     -1.87027524207676      0.04757907791735
  H           0.13405914685351      0.04181060820395     -2.29224771889870
  H          -1.28302803008986     -2.34064221506181     -2.70869820844483
  H          -1.83466091282089     -0.74522804408248     -3.46009984280395
  N          -0.81625938899311      0.85907124756604     -1.48185797496758
  Br          2.14689861829549      2.46881746477042      1.56556753461855
  Br         -0.70741318962462      2.09811704218214      2.92706281622792
  Br          1.85309924085850      0.75303300546573      4.19362677338174
