24
Coordinates from ORCA-job R E -36.049851849250
  C          -1.18804170946155     -0.27580655810650     -2.97650824586896
  C          -0.59548155547911     -2.85716987622195     -1.54286461869595
  C          -1.80067597771239     -2.36514594373050     -1.82385980039120
  C          -2.10140110834634     -1.07772958617640     -2.40715741094008
  C          -0.85924631772416     -0.11457569784885      0.73921267276234
  C           0.40037678964135      0.20720681708435      0.51937144536070
  H          -2.67122830411134     -2.96776061014311     -1.59200044142539
  H          -3.14163727129769     -0.78667900589488     -2.38174652267770
  N          -1.39117837726823      1.00239176844334     -3.44109487018531
  H          -0.47843816475514     -3.83561603253330     -1.10850192521922
  H          -0.15762606709187     -0.59393806501122     -3.04258503320205
  H           0.31046518466069     -2.30686235541704     -1.73368995484098
  H          -1.13042505716321     -0.80149089369232      1.52149459253055
  H           1.21841252566645     -0.18931444249773      1.10594825058262
  H          -1.65704176860160      0.28752773253757      0.13811232803566
  C           0.81069027732881      1.13936742820005     -0.57554704704163
  C          -2.72544299702086      1.52685780150705     -3.60592989176328
  H          -0.73735447686972      1.30143119522726     -4.14928125352430
  H          -3.23924480970709      1.51562321129559     -2.64408031863220
  H          -3.32275635964276      0.95130200292072     -4.32393458038563
  H          -2.66003640788164      2.55727056694789     -3.95039346915099
  F           1.50611011635854      2.20363447150377     -0.08807618188068
  F           1.66438046780138      0.51579601904424     -1.43535173646530
  H          -0.03232863132253      1.52819005256196     -1.16572598698103
