24
Coordinates from ORCA-job TS E -36.037100087440
  C          -0.36890386827953      0.08757012955445     -1.20834274321654
  C           1.04617044568309     -1.83242942175856      0.40918197321504
  C          -0.26056015709286     -1.98747627487597      0.05062090763975
  C          -0.96075715049624     -1.05154694076357     -0.72725830019313
  C           0.07334227285373      0.89960371562626      0.98671335593380
  C           0.88677952076599      0.01207845385972      1.62468224814375
  H          -0.84848335802895     -2.75304176471465      0.53988598074423
  H          -2.03052671929771     -1.17042362092065     -0.81011617943204
  N          -1.01701269889825      1.06464086970560     -1.91177728185337
  H           1.50175604668729     -2.54024209863628      1.08270199604611
  H           0.70377005595644      0.13498120047851     -1.30561627178511
  H           1.73359888889310     -1.30489883981976     -0.22683963688594
  H          -0.98135380825240      0.91212281639006      1.18331784359437
  H           0.51995993782043     -0.60270383971964      2.43006124509144
  H           0.48900364047534      1.73904959054783      0.45941897433591
  C           2.35972492077509      0.30069529347538      1.70100167974038
  C          -2.44436187798215      1.25331903772164     -1.81604815725642
  H          -0.48786329717834      1.90922825448420     -2.06115614801200
  H          -2.77548961308245      1.42012733165015     -0.78430799503885
  H          -2.95753913142223      0.37388126014658     -2.20622747858655
  H          -2.72982261578199      2.11186026350620     -2.41964808995148
  F           3.08654314303042     -0.77314956807505      2.09793862260216
  F           2.87139256530787      0.68160891023627      0.49876744434281
  H           2.59063285754432      1.11514524190130      2.41304601078167
