19
Coordinates from ORCA-job NEB_product E -41.623900413250
  C           1.43631832271423     -2.24700206862518      0.37689395654463
  C           1.88061730733158     -2.08368493386799     -1.06408827410084
  N           0.90436060303893     -1.03105950752048      0.93276861438914
  H           0.72870813213277     -3.10156438956815      0.37571135610844
  C           1.82328990610184     -0.63773489534705     -1.64253897472005
  C           2.70055432677781     -2.69746817215899      1.13963809103359
  C           3.73992171213383     -1.63490542533575      1.19747166325408
  C           4.99643475300505     -1.84037573714111      0.84758273233691
  O           2.26328424444398     -2.98094596695649     -1.75681478879222
  Br          2.16441212501275     -3.18951535218415      2.98119099983731
  H           3.08546622460230     -3.61990151743609      0.70049742994969
  H           3.39626028673067     -0.67210033983253      1.54642114754640
  H           5.34461115553734     -2.79961966176854      0.49924792199066
  H           5.72594418394029     -1.05153281548511      0.89272691872309
  H           0.78020050737619     -1.11953220293782      1.93574680401167
  H           0.01359936367396     -0.77848062642741      0.52433193883088
  F           2.50541755619788      0.24136022798736     -0.90674580605621
  F           2.33294608041436     -0.60433347539500     -2.87288514872703
  F           0.55715320883423     -0.20120313999950     -1.72865658216014
