22
Coordinates from ORCA-job NEB_reactant E -32.594132046340
  C           2.16869492735985      0.41039292814152      0.22651165278524
  C           1.52168125110265      0.90707686745568      1.28805689775044
  Cl          2.85121341387442     -1.17004518395719      0.07539673077741
  H           2.30628088792840      1.01563246417454     -0.65219463419854
  N           1.02581721337519      2.20817794853554      1.25477655375444
  C           4.64457975915541     -0.75657718371142      2.85637247554803
  C           3.56092996380188     -0.04563259076716      3.11458036013274
  C           2.16357647007653     -0.58383198490617      3.06730858412277
  O           1.24738495332388      0.34081429754312      2.49066047362651
  C           6.03855395528904     -0.22004041647532      2.88192335963761
  H           4.55293871129583     -1.79955495807668      2.58177584622146
  H           3.63231848060587      1.00179877626798      3.37764801731658
  H           1.77444999929059     -0.72244741831490      4.08305378785492
  H           2.13027766083472     -1.54617484101467      2.54680739657238
  H           0.33724929648847      2.36966223381896      1.97532151258887
  H           0.74425796106070      2.54375444404883      0.34738173875280
  C           6.67716030183139     -0.32244562352328      1.49663115082481
  H           6.63469035252747     -0.79823473037737      3.59371160288569
  H           6.03076299124371      0.82117837064178      3.20909287583832
  H           6.70508520172895     -1.35819821590833      1.16605958643301
  H           7.69367783478647      0.06349221442805      1.51532804473204
  H           6.09981841301855      0.25070260197651      0.77509598604247
