18
Coordinates from ORCA-job NEB E -33.517033999370
  C          -0.43654837465314     -1.32297931614419     -0.74417174164956
  C          -1.78145915643971     -1.08144703311074     -0.49472860339343
  F           0.26874177021073     -1.95517761394765      0.22327539837385
  H          -0.08229186854328     -1.61545602856782     -1.72580196849094
  I          -2.88321412489177     -0.55269056568556     -2.29935172007289
  C           0.28477131582563      0.56495049270079     -0.49579251053652
  C          -0.19368939612431      0.78312441871071      0.80393637285896
  C          -1.56598826684255      0.91813267501809      1.01551667961292
  O          -2.23176340981444     -0.69819534405579      0.59925975756326
  O           1.58007985655459      0.46574477696191     -0.84660372056966
  H          -0.26687909099618      0.99681012106318     -1.32786614898134
  H           0.42449597077118      0.49175180542867      1.63981780160827
  H          -2.15715332922759      1.45539703484116      0.28430067721869
  H          -1.92268776218052      1.00316064028764      2.03034343168652
  C           2.54321359718535      0.18792399094046      0.15554871948954
  H           3.48431398710466      0.05898768230008     -0.37506286029929
  H           2.30692620838761     -0.72561895940366      0.70399981723139
  H           2.62913207367374      1.02558122266271      0.85338061835023
