20
Coordinates from ORCA-job NEB_product E -52.548927410750
  C           2.15188016892687      1.77914204215729     -1.87352607901063
  C           0.88318342102855      1.34090101681703     -2.57190102725988
  Cl          1.99908280936783      0.95593133320755     -0.27978032600536
  H           3.06556307838299      1.41255068292371     -2.34800781976626
  C           1.00675863271602      0.13355288007293     -3.48524966167232
  C           2.19810916212271      3.29261185559379     -1.64498219083350
  C           3.27565779564405      3.66615725288307     -0.66172667773105
  C           3.04580712373054      4.36078190525351      0.43461814597654
  O          -0.17101287425330      1.88512218213495     -2.42743702527453
  C           2.47877905553488      3.99887538557212     -2.97292892139792
  H           1.21729425175972      3.63511993006928     -1.29605953626163
  H           4.26983042812250      3.33182654717242     -0.92319935254203
  H           2.05847587503641      4.70031609935142      0.69985812874897
  H           3.84081661949258      4.61589631824778      1.11235698731797
  Br          1.98099033368302     -1.33877582166516     -2.69834177324832
  Br         -0.74667605132217     -0.45869799468997     -4.01574621309424
  Br          1.99098019019181      0.76970916946941     -5.05613073861739
  F           3.64232302981373      3.60789412648676     -3.51252092654296
  F           1.53458761920775      3.75489878952119     -3.89357453735135
  F           2.53986933081349      5.32258629942093     -2.82382045543411
