20
Coordinates from ORCA-job NEB_reactant E -52.542202994850
  C           1.80981869393259      0.06668285210839     -0.19646854855419
  C           1.69096631108136      0.68835761383845     -1.36977073468799
  Cl          2.48452768078265      0.70112676404108      1.25578548872493
  H           1.47022539468783     -0.94915673848963     -0.07648479555411
  C           1.06232354137674      0.02336144732411     -2.55957242649071
  C           2.45712451596012      4.39244239581881     -2.87770803111651
  C           2.60705637232612      4.22675726759413     -1.57435551891511
  C           2.44086452702394      2.92912898109852     -0.85451128356146
  O           2.01700564420604      1.93771031167258     -1.76972700020588
  C           2.64238607342127      5.71691908418097     -3.54748097399334
  H           2.19660881993368      3.59233691494017     -3.55220481440613
  H           2.87462691314402      5.05644379985484     -0.93466072985219
  H           1.69955100305347      3.05213986322164     -0.05503686619745
  H           3.40013614987276      2.65039878857080     -0.40050781364367
  Br          0.76589970510123     -1.86950616717253     -2.40817353705647
  Br         -0.66724042346010      0.89794975641678     -2.88793531625932
  Br          2.19202476352954      0.33400758942579     -4.11733081062689
  F           3.62424872075457      5.67947431475826     -4.46409315118053
  F           1.53420357052438      6.10797908518268     -4.19786586683894
  F           2.95394202274780      6.70484607561413     -2.69579726958406
