18
Coordinates from ORCA-job NEB E -40.229687155680
  C          -0.03982655788560     -1.14414037245929     -0.04834232187741
  C          -1.07411985530874     -0.34262596817099     -0.89932983279650
  O          -0.64839683184320     -1.83978401138804      0.98400904185625
  H           0.59810719008777     -1.79270973203037     -0.66476638766488
  Br         -0.68057647884085     -0.60112227029500     -2.87074102453875
  C           0.64959141730965      0.11872166987308      0.50203708978365
  C          -0.34984744637660      1.05797419259339     -0.16824361446826
  C          -1.58976555114668      1.17736119902456      0.50459802702530
  O          -2.32286390691765     -0.37664778852180     -0.68058208221000
  C           2.10632426238610      0.32548488097912      0.17793701670139
  H           0.55166057860205      0.12971824147000      1.59493769181709
  H          -0.01729991627910      1.83430442371101     -0.84447101474897
  H          -2.36952805657752      1.80642867406774      0.10612970523949
  H          -1.76806212400590      0.69105422768669      1.45132061136359
  H          -1.38383095295442     -2.36232177864204      0.63767555476826
  Br          2.67331606433713      2.02736331307684      0.97136377659503
  Br          3.16566354388468     -1.11133537310694      0.96983550171642
  Br          2.49945462152887      0.40227647213201     -1.72336773856172
