18
Coordinates from ORCA-job NEB_reactant E -40.298538561040
  C           2.15581195351840      0.36390589166516     -0.00484795574143
  C           1.47347860607159      1.28145106055422     -0.68635660008807
  O           2.64674957562942      0.54795545809873      1.26538309195980
  H           2.33106635400613     -0.59428964719169     -0.47007366303639
  Br          0.83919389152164      0.81994135760063     -2.41071485977534
  C           4.10724377208990      3.13144312583738      1.37034168995804
  C           3.20024703008629      3.36217388137714      0.43580300334444
  C           1.73008917654011      3.21129357606192      0.67485696387542
  O           1.09522737495618      2.55105118941746     -0.40301484757121
  C           5.57246825970774      3.16428302163235      1.19237098464332
  H           3.80354935146899      2.83337828161160      2.36654449777389
  H           3.47293970824100      3.64187488342567     -0.57370504406107
  H           1.25247744022975      4.19652217162582      0.70230187812310
  H           1.54164668501033      2.68792842524718      1.61777223495052
  H           3.22016924199504     -0.19037072528626      1.49511321256919
  Br          6.41082150478215      4.24640416240035      2.60800986990596
  Br          6.24238136322980      1.31062674951342      1.38149605651218
  Br          6.17933871091552      3.83542713640893     -0.52338051334237
