25
Coordinates from ORCA-job P E -27.422271470200
  C          -1.30885492420995      0.23811131690017     -2.45236290193229
  C          -0.13456128920840     -1.73533833621732     -0.95006891810167
  C          -1.53751575396235     -1.94745598979936     -1.41823999716637
  C          -2.10530879461924     -0.99277117332219     -2.13728646165918
  C          -0.65511158852058      0.75709485335237     -1.15733670959984
  C          -0.00028008824081     -0.34612391496673     -0.30069066176825
  H          -2.05046019943661     -2.85791660475771     -1.14882636978060
  H          -3.11891982139576     -1.06168787435434     -2.50152938895835
  C          -2.17006267555555      1.30628189549430     -3.13102961779004
  H           0.16777980014669     -2.50465598214557     -0.23882862922582
  H          -0.50258874162471     -0.04570163769708     -3.14295995741180
  H           0.54463388498170     -1.78515023985957     -1.80780471297052
  H          -1.42690806091532      1.25915407149905     -0.57058982171981
  H          -0.52030651839528     -0.39052161147687      0.66224657526624
  H           0.09656736774812      1.50259327939227     -1.41789615548454
  C           1.47027936591800     -0.03602669283987     -0.03008981725771
  C          -1.37143520793992      2.50587213672237     -3.62793631971847
  H          -2.93808930504409      1.64540779155092     -2.43143499243027
  H          -2.67800389261929      0.84681934430725     -3.98302756396887
  H          -0.93502200630378      3.05755545057066     -2.79937196830900
  H          -2.01701297096526      3.18397954613817     -4.18190451489332
  H          -0.56924195675131      2.18257665447105     -4.28845753865156
  H           2.02511068533289      0.02284128639179     -0.96457332696045
  H           1.91811809666326     -0.81402247962266      0.58512138966470
  H           1.57237459491754      0.91265491026891      0.49260838082776
