25
Coordinates from ORCA-job TS E -27.313187107300
  C          -0.69868108955701     -0.01147174208238     -0.93765203267617
  C           0.62453425177251     -2.17005824084851      0.41882478433682
  C          -0.69675589545319     -2.20492488640811      0.11349188981972
  C          -1.34396851426166     -1.15135655163555     -0.56527680216482
  C          -0.08726326630337      0.63150017516997      1.17502727912812
  C           0.69892783284816     -0.30962709897784      1.75830588264777
  H          -1.32467580785829     -2.96061524410825      0.56716216196679
  H          -2.42571021265185     -1.17293584056279     -0.60667625664209
  C          -1.43520972509907      1.15105695798236     -1.54283380602800
  H           1.05734145021766     -2.94298904595126      1.03369930599766
  H           0.36272494137415     -0.03502235414134     -1.12469071448547
  H           1.32106269838818     -1.61584518191110     -0.18158644554999
  H          -1.12840024885959      0.71267931416471      1.43060844514980
  H           0.27635773247758     -0.96220371532482      2.50748320648718
  H           0.35791129086180      1.48684745087639      0.69848876695137
  C           2.19459847073604     -0.17139575928861      1.78011002366142
  C          -0.50305778344355      2.22685935003912     -2.08723258607192
  H          -2.10655355630976      1.59063681356848     -0.79980331759996
  H          -2.06646797240876      0.78189371159432     -2.35787588919922
  H           0.10987180959869      2.64772762162505     -1.29323366927381
  H          -1.07539084301648      3.03515215755504     -2.53724960865491
  H           0.15634022330988      1.81114560529778     -2.84643970960664
  H           2.55627989770642      0.31321656355767      0.87557926669624
  H           2.69214279628833     -1.13125880298859      1.89208106815961
  H           2.48404151964321      0.45098874279827      2.62968875695049
