23
Coordinates from ORCA-job NEB E -40.250408152740
  C          -0.18655956761218      0.86949297887107     -0.11000282557863
  C          -1.56806277333377      0.85497803337224     -0.27694966720044
  Br          0.72045905387997      0.62640385490184     -2.20688640708756
  H           0.26304928583170      1.82838739059448      0.10963431686139
  C          -2.43590450522947      2.06557837944234     -0.22714169635273
  C           0.31784415375250     -0.32084496245023      0.77747315829375
  C          -0.22604317192902     -1.53983984705237      0.15778175036106
  C          -1.47142962446975     -1.45994243532445     -0.61877036217764
  O          -2.24396267973356     -0.30411385996159     -0.51405129148670
  C           1.81153418330641     -0.36646603339729      1.13332282022879
  H          -0.18583004749306     -0.12913102271559      1.73813858307434
  H           0.44210372578766     -2.33971523599700     -0.11719986089413
  H          -2.15006198409471     -2.29768083939356     -0.42200186670689
  H          -1.16076517929451     -1.54526954721977     -1.67731353809129
  F          -2.49681777781846      2.57456425585404      1.04291876223601
  F          -1.94575278012444      3.07688939151722     -0.98240028484980
  H          -3.46355806067727      1.84514028466827     -0.54849489192378
  C           2.80421639839424     -0.66452970682922      0.01614054739413
  H           1.91025519685432     -1.13733333450983      1.90236405341211
  H           2.07318097253621      0.58749140689216      1.59596063625049
  H           2.47153053922512     -1.49206995874578     -0.60429689235949
  H           3.76411594800279     -0.93211574998692      0.45199700741771
  H           2.95645869423931      0.20012655746992     -0.62022205082069
