23
Coordinates from ORCA-job NEB_product E -40.303773350130
  C           3.05880344738045     -0.39814211556798      2.25107443682678
  C           1.58370585289194     -0.08454434489677      2.23862364566108
  Br          3.52232747124422     -0.23611802246767      0.34061417398423
  H           3.62035338745496      0.39933827560874      2.74345495989049
  C           1.23337712443122      1.37653799142141      1.86766438288394
  C           3.37578480776606     -1.76781420917744      2.85687831513454
  C           3.11205045516958     -2.89429105173222      1.89756289570516
  C           2.10847731299304     -3.74116646616653      2.01766788542634
  O           0.71284240626928     -0.87589158822127      2.45425374050728
  C           4.80175750559428     -1.82650230564364      3.43291109695449
  H           2.67736780329138     -1.87848775338854      3.69711854448022
  H           3.80876091562576     -2.98550446673589      1.07617220023104
  H           1.39405335542371     -3.66860620647928      2.82070891610448
  H           1.95335709666336     -4.53574608548425      1.30836857794776
  F           0.19536366286399      1.79664001783531      2.61679591730011
  F           2.26025317273235      2.22137906707153      2.11525493172304
  H           0.95310491927023      1.47030998739150      0.80565287219146
  C           5.92088504819126     -1.53486465578196      2.43927850248054
  H           4.94274058955311     -2.82771534862868      3.84592278876444
  H           4.86968336038722     -1.11732262990003      4.26261552895858
  H           5.87623110099646     -2.20173955606510      1.58282985199043
  H           6.88216271278279     -1.67964211012956      2.92687955111593
  H           5.88315649102334     -0.50950642286169      2.08019628373760
