23
Coordinates from ORCA-job NEB_reactant E -40.298205053010
  C           2.30679200902232      0.22408994593712      0.73814079396941
  C           1.49943424899347     -0.18372706830681      1.71954116903772
  Br          3.43927099363974     -0.79506981527775     -0.37510708988054
  H           2.36202541792983      1.27109890543342      0.49392736756432
  C           0.70341106130485      0.89128955770686      2.44953754035297
  C           3.87800220314320     -1.73509560396270      3.19347321525080
  C           3.36376777173674     -2.53760659267773      2.27649620990291
  C           1.91332786110418     -2.55092608965232      1.88383138437926
  O           1.20527512191156     -1.37673785590811      2.25112998955894
  C           5.31408726136548     -1.66552636382183      3.60572485643601
  H           3.23335523821772     -1.04032743669112      3.71958421537153
  H           3.96845145928510     -3.24923232820398      1.73682287579679
  H           1.38486565919639     -3.34690024012114      2.42074280888581
  H           1.80666888999985     -2.74162278007155      0.80999138843461
  F          -0.61360097949522      0.59845541834691      2.44877557141535
  F           1.08495865378341      0.95132888516796      3.74687685585828
  H           0.82978514330287      1.89372515396040      2.01470149007762
  C           6.24940859371900     -2.59297704962331      2.84223166885574
  H           5.36884309524591     -1.88750113129990      4.67629295739475
  H           5.64994183779900     -0.63055126468891      3.48382308512904
  H           5.97041283383419     -3.63268562227796      2.99457841247859
  H           7.27018912696506     -2.45880910143950      3.19220030981933
  H           6.22042649799534     -2.37409152252805      1.77748292391079
