17
Coordinates from ORCA-job NEB_product E -38.659917573620
  C           3.21448238115039     -1.29659495157850      0.11127050554804
  C           1.73141751188041     -1.17628521795608      0.35728641516224
  Cl          3.77943242363267      0.13689229393987     -0.78868976774140
  H           3.75617917706805     -1.31911562933585      1.06282954880921
  C           1.16825306704003     -2.18413339820617      1.39539311242648
  C           3.54414438157861     -2.59701508161545     -0.66344524257779
  C           3.07546278646013     -2.53603669347141     -2.08661516452190
  C           1.92546692323661     -3.03828971867342     -2.49171206055339
  O           0.99521442759838     -0.40845201408827     -0.18518612562514
  F           4.90636531968368     -2.77151469685729     -0.61909121748275
  H           3.11337367927696     -3.45554350903817     -0.13155357689640
  H           3.75282733531263     -2.03223218294034     -2.75950016085589
  H           1.25192127516628     -3.54402259814223     -1.81927540633361
  H           1.61110291580118     -2.95983240844621     -3.51714665338259
  F           0.79885797142119     -3.31908772276166      0.75467495132368
  F           2.09565578705064     -2.54301137662642      2.30749490779622
  H           0.28774263664217     -1.77982509420242      1.91616593490499
