17
Coordinates from ORCA-job NEB_reactant E -38.657316050620
  C           2.06155743131181     -0.33989200605219      0.13055636733809
  C           1.57094707079812     -1.56159854739458      0.35182530814688
  Cl          2.80041456730078      0.26636043366890     -1.30528471344463
  H           2.01835732750637      0.40229685126099      0.91008860490471
  C           0.94653292409236     -1.83416356383255      1.71367505065454
  C           4.18677273162537     -4.11920127893284     -1.78986853110907
  C           3.58791833378548     -2.97137764102743     -1.53691583265990
  C           2.10758455857528     -2.78722362084173     -1.66953274478324
  O           1.47228707383261     -2.66976568243150     -0.40187640187048
  F           5.51039135578168     -4.26584541813849     -1.66315528419275
  H           3.70864923035490     -5.02683650867208     -2.13019805543643
  H           4.16581805383949     -2.12701205946772     -1.19224514222554
  H           1.65152025846084     -3.67846134990444     -2.10700432929856
  H           1.88055019479609     -1.91930139965090     -2.29507930873415
  F          -0.35421485825039     -2.17634509324330      1.58166916098495
  F           1.55825259498640     -2.87748161141898      2.31554793634179
  H           1.00216115120281     -0.96985150392117      2.39179791538378
