30
Coordinates from ORCA-job P E -41.050891021670
  C          -1.14124093008200      0.37461115052974     -2.34688310609521
  C          -0.53941585642196     -1.46030119530397     -0.02948076716786
  C          -1.50886063403910     -1.78000685283490     -1.12561890539679
  C          -1.76692916663784     -0.97593171589745     -2.14275740409154
  C          -0.45969113544646      0.84352482953570     -1.05432124696092
  C           0.34632897499512     -0.28651291524126     -0.41085682052743
  H          -1.99735180952217     -2.74027688199783     -1.04971889674375
  H          -2.44969051160054     -1.30562811645385     -2.91039801621782
  C          -2.15879175298510      1.41128189934074     -2.90057931047170
  H          -1.08380129137976     -1.21503511616222      0.88733968501191
  H          -0.36526081110292      0.26395392169463     -3.11837092956175
  H           0.07306511905407     -2.34074308996127      0.17932869750457
  H          -1.20791228440700      1.17037172521870     -0.33243257782457
  H           0.88594859486625      0.10416305206653      0.45989845835847
  H           0.21339517032131      1.67465923988418     -1.26450734972159
  N           1.40362169162658     -0.70132242121016     -1.37202019567036
  C          -3.42572204560138      1.45285129418732     -2.04257781087999
  C          -1.52687720863576      2.80735658869761     -2.93668563562552
  C          -2.53723822172641      1.03500180927590     -4.33789760517431
  H          -3.20538625181525      1.77210923465163     -1.02689399761852
  H          -3.89711988422106      0.47438241102442     -1.99802118767397
  H          -4.13688402450953      2.15763908244119     -2.46726896022069
  H          -1.38110363355046      3.20645140564395     -1.93668864468851
  H          -2.17871007934873      3.49202016444579     -3.47481925889689
  H          -0.56675115147724      2.78290382923739     -3.44734511459700
  H          -3.03909330368458      0.07283760803465     -4.38487977946922
  H          -1.65151149718086      0.99133541948729     -4.96793942113456
  H          -3.21215513272555      1.78090554143511     -4.75175244047157
  O           1.45544031418792     -1.85346581655083     -1.72018217684699
  O           2.16146875305040      0.16825391478128     -1.73515928112592
