30
Coordinates from ORCA-job R E -40.953763324640
  C          -1.45240663911418      0.23199447461471     -2.53025647880919
  C           0.00772088781212     -2.23209802102247     -1.56554282673325
  C          -1.24465650641185     -1.89137437929509     -1.27454926817485
  C          -1.98703768261233     -0.78930732635928     -1.85803215726100
  C          -0.63163639508963      1.02847672859029      0.27703553269480
  C           0.25084082566591      0.08966706049567      0.58080830331119
  H          -1.79328688748053     -2.48051889633117     -0.54931652898714
  H          -3.05793573999634     -0.83055447791114     -1.70515293101339
  C          -2.22777472832647      1.34553377856334     -3.18845729285922
  H           0.49385732224767     -3.06346876269562     -1.08483396733297
  H          -0.38119421301573      0.27080339479420     -2.67055342879929
  H           0.58724640962275     -1.71003896150393     -2.30773815786303
  H          -1.57458905952535      1.10782507031854      0.78597650975832
  H           0.13458558656109     -0.66196817328344      1.34515785700872
  H          -0.40676747021828      1.75082665687962     -0.48986092759646
  N           1.50297649440912      0.00547254065159     -0.11073297939711
  C          -3.23236488950956      1.98563249083483     -2.22299382421362
  C          -1.25325208279330      2.41753567715052     -3.68334018047482
  C          -2.98551341444647      0.75957318122010     -4.38975228255852
  H          -2.71833336427519      2.44972984099842     -1.38461469643262
  H          -3.93005565178307      1.24833691879067     -1.83576515854635
  H          -3.80354989280100      2.75384194424081     -2.73981104306710
  H          -0.67519858651189      2.82681872140853     -2.85756428633875
  H          -1.79311749942345      3.23289607987476     -4.15995383131034
  H          -0.55908322202571      1.99735007657794     -4.40735443286913
  H          -3.70593414828764      0.01444254729726     -4.06177760856127
  H          -2.29197005862952      0.28388324162719     -5.07941935496888
  H          -3.51637516499299      1.54658461091218     -4.92100486852728
  O           2.31388665937716     -0.78622653231881      0.32156147808702
  O           1.68027911157469      0.72479049487978     -1.07102116816447
