30
Coordinates from ORCA-job TS E -40.949284998410
  C          -0.21783898106730     -0.22237530276622     -0.31693270512251
  C           1.11849169448402     -2.61193345787785      0.73827676720855
  C          -0.20030732823007     -2.37725995527997      0.85855443978240
  C          -0.86690606100763     -1.25710297911500      0.29065486094056
  C           0.73029711918899      0.50675612248089      1.52285939978361
  C           1.61611699813323     -0.40676375186086      2.00001138327614
  H          -0.78796331114499     -3.00927598814576      1.51152820295924
  H          -1.92433284331618     -1.17293341967187      0.49781335674768
  C          -0.94033528843530      0.90511664309782     -1.02142749308878
  H           1.59453257947416     -3.41579924658117      1.27358560607342
  H           0.78304358991365     -0.38582182115849     -0.69403319469215
  H           1.72288282794937     -2.12490522247376     -0.00576014976080
  H          -0.17935780782597      0.69570977949205      2.06319728021927
  H           1.45471830183572     -1.03850869512867      2.85631386034575
  H           1.10702377187128      1.28444050195849      0.88214795169010
  N           2.91222714454381     -0.48224864389906      1.45368316100172
  C          -2.16255406059389      1.41468399857174     -0.25385325573119
  C           0.00317425532716      2.08027629037371     -1.30136275223262
  C          -1.39783322075345      0.32010292487049     -2.37033999376204
  H          -1.88880628830520      1.73558249795072      0.74815139637143
  H          -2.93085291701166      0.65027270280083     -0.17646727755047
  H          -2.59191875194752      2.26599967632548     -0.77689528867910
  H           0.16112809425407      2.68057462531768     -0.40832017849550
  H          -0.42854679583336      2.72974779894302     -2.05975616521085
  H           0.96721282385337      1.73057407782156     -1.66345354844488
  H          -2.04836342261177     -0.53771112776887     -2.21681357809778
  H          -0.53978217026142     -0.00053830982121     -2.95622054370354
  H          -1.94203924620365      1.07114051498815     -2.93825923429138
  O           3.74573442957925     -1.13351247867580      2.05875903664483
  O           3.13115486414128      0.10571224523193      0.40435865581891
