15
Coordinates from ORCA-job NEB E -30.178966112560
  C          -0.97366701698237      1.11426977532688     -0.12121130365445
  C          -0.27137775587836      0.57329301195418     -1.19295888399243
  I          -0.12774999711990      2.78102477876247      0.84343159766502
  H          -2.04953970039568      1.17577943621843     -0.19378746596512
  O          -1.00085887155186     -0.16508681164514     -2.07310775411574
  C          -0.61250444597873     -0.46045499161130      1.14892109410454
  C           0.77278342553922     -0.50747734951414      1.14855752674570
  C           1.42961520984002     -0.81615679935804     -0.06186198975628
  O           0.99624802742612      0.42470356920981     -1.16348904378741
  Cl         -1.43738230401905     -0.00550021621498      2.59921858521598
  H          -1.18854939920887     -1.16540993397278      0.55982296930135
  H           1.30476568328272      0.06294338146857      1.89535220702299
  H           1.05404886161876     -1.66004805826350     -0.63175551546046
  H           2.50622819647292     -0.72513218696395     -0.08018074340704
  H          -0.40205991304494     -0.62674760539652     -2.67695127991664
