15
Coordinates from ORCA-job NEB_product E -30.227303951010
  C           3.04623588047765      0.30926645701843      2.08204491598239
  C           1.51555791634614      0.38989465369936      2.20680920553925
  I           3.78432694668051      0.50073767694394      0.06283390636621
  H           3.47844129998742      1.14314550430370      2.63825167982083
  O           0.78046030238433      0.20534192897064      1.12578093883515
  C           3.47728113705542     -1.00305560356094      2.73579253032758
  C           2.93100450425837     -2.20920396815529      2.04735899935992
  C           2.07908545742501     -3.04407738594283      2.61229403991359
  O           1.03724178177923      0.57365428357328      3.28847487357611
  Cl          5.27445753303562     -1.09945878449263      2.76026644686565
  H           3.15114384765048     -0.97308477539090      3.78021885350321
  H           3.28784419296157     -2.37061543144631      1.03853612526190
  H           1.72426296992450     -2.89994362801348      3.61929686889025
  H           1.69706012631406     -3.90027844627160      2.08466841864725
  H           1.30609610371970      0.09287751876463      0.31157219711071
