19
Coordinates from ORCA-job NEB E -48.633113998920
  C          -0.54919059279202      2.04331994976188      1.49082073289504
  C          -0.20353376734141      0.84874494882833      2.03848715940763
  N          -1.22799969334077      2.36748308882201      0.33657557004957
  H          -0.19926588420756      2.91615964528966      2.02452681497972
  F           0.48610289675399      0.98234053503302      3.18318274746126
  C           0.98897924403596     -1.71973169511688     -0.87168260596898
  C          -0.00521120893976     -1.03579192178956     -0.51449129251298
  C          -0.89314120613278     -1.09434341228082      0.69845447474479
  O          -0.31843373226206     -0.43449173960022      1.81809194800553
  C           1.98295503907023     -1.89289524280624     -1.87762949310647
  H          -1.06210133402022      0.79403003045989     -1.18694790195870
  H          -0.41660373993576     -0.05721015443048     -1.20548420933125
  H          -0.97337063035675     -2.13091232521741      1.03347056786904
  H          -1.88144737692671     -0.69082820012260      0.47088651341745
  O          -1.21138745440644      3.52299035126940     -0.07276818108922
  O          -1.79678330559578      1.43572447394850     -0.32885839780491
  Cl          1.86320542632454     -0.63056856131270     -3.21494269646535
  Cl          3.60705465292568     -1.74119076501145     -1.17073397457664
  Cl          1.81017266714762     -3.48282900572433     -2.65095777601554
