19
Coordinates from ORCA-job NEB_reactant E -48.755323418840
  C           2.04235336570409     -0.13575279178029     -0.83084574247750
  C           1.42009675400532     -1.18613206228500     -0.25721096749383
  N           1.75056837577837      0.47637296586462     -2.06648659996097
  H           2.85947873025598      0.32067291307778     -0.29270529613271
  F           1.80291279196975     -1.46353034855185      0.99520316682853
  C           1.79892960513346     -2.15431208122541     -3.94631961758642
  C           1.51958942101671     -2.66831340939674     -2.75878944552428
  C           0.26520664278437     -2.35279040048040     -2.00348852175158
  O           0.53615690126536     -2.07562991069304     -0.62804428071616
  C           3.02713463560369     -2.42554178732470     -4.73759084939794
  H           1.11862005183305     -1.46449075396715     -4.42835916878840
  H           2.20117440103077     -3.34904190308828     -2.26726796388062
  H          -0.38505831617139     -3.23167602122028     -1.96202929594480
  H          -0.26807319495512     -1.51516314521095     -2.46550871701460
  O           2.63264152130250      1.13159510579046     -2.57620278839136
  O           0.63192604424161      0.34423246105291     -2.53624353521624
  Cl          2.56194314532318     -3.08284224217650     -6.33232391952113
  Cl          3.89942598887012     -0.87995225651630     -4.98577470555780
  Cl          4.12917313500817     -3.57290433186887     -3.96571175147220
