19
Coordinates from ORCA-job NEB_product E -48.763733030010
  C           2.46889729242653     -1.22224065692608     -1.62416223319934
  C           1.48452398831732     -1.37487785658778     -0.48354778851359
  N           2.66541853472586      0.24294074579317     -1.87720963610011
  H           3.43915735663166     -1.63339962733838     -1.31245752179997
  F           1.36627052432866     -2.68875059229970     -0.16522513675010
  C           1.95246276477136     -2.00815194891782     -2.85564857606298
  C           0.67250854048209     -1.43218586486288     -3.40843368459380
  C          -0.51033602614072     -1.95230788117656     -3.14214484897384
  O           0.88531116428346     -0.56000094984229      0.10843451997033
  C           3.02365283808845     -2.11944407181431     -3.94700586046325
  H           1.75888792577432     -3.03129969531827     -2.50961140501946
  H           0.77046592325111     -0.55390494828306     -4.02672014305677
  H          -0.62977554779873     -2.82705846049620     -2.52318018163276
  H          -1.41168524649926     -1.51754288754610     -3.53478501003561
  O           3.76003105135589      0.67068240968009     -1.62813066528786
  O           1.71957530386461      0.86593712466685     -2.26774904880659
  Cl          2.36860086541990     -3.11149284994617     -5.27161426754787
  Cl          3.49451350213793     -0.53125287111106     -4.59941163926831
  Cl          4.48421924457956     -2.92664911767344     -3.31219687285809
