21
Coordinates from ORCA-job NEB E -50.271471135480
  C           0.80294058098622      0.45135278494991      0.20615935398686
  C           0.02129140585354     -0.16292932630754      1.21684077933325
  C           0.74001242243761      1.96480900523906      0.06257895534230
  H           1.84915439202547      0.14649513217085      0.18454013796307
  C           0.57964861920199     -1.45974472397462      1.79367210218639
  C           0.05884439550845     -0.23257503633407     -1.38429381585657
  C          -1.32648531093802     -0.00843917224168     -1.19396582616662
  C          -1.99996577455182     -0.60830522287574     -0.11290906266385
  O          -1.24903390924989      0.01805587419278      1.25808626126104
  O           0.61410134254658      0.44112255589422     -2.42714459091966
  H           0.41707072889954     -1.25557547786174     -1.25889043728774
  H          -1.73365274651431      0.88096029496201     -1.64949615706357
  H          -1.82281156787466     -1.66234722471795      0.07412239832188
  H          -3.02749242287638     -0.31150001760479      0.04529536589596
  F           1.64778977392723      2.38118661263039     -0.85362918406178
  F          -0.45150239279893      2.44352404478324     -0.32836966398592
  H           0.99762011379359      2.45170266263234      1.01853952711113
  F          -0.19108452736379     -1.97760683674261      2.74412188911024
  F           0.72559771388827     -2.42686289634192      0.84833596865168
  F           1.80691956528241     -1.28365780361285      2.31128630794723
  H           1.54103759781690      0.21033477116069     -2.55488030910533
