21
Coordinates from ORCA-job NEB_product E -50.302221281690
  C           1.59077475363901     -0.80335456047538     -1.78057832654681
  C           1.03509104145879     -1.28287475722656     -0.47699778272022
  C           1.29502976626392      0.69273634702043     -1.91782732910493
  H           2.67167914561368     -0.96480261238922     -1.84232544713818
  C           1.79345199189094     -2.49396241466728      0.14672368463027
  C           0.93403260798134     -1.64023125947981     -2.96512235384266
  C          -0.50221201319757     -1.23200329985468     -3.13505831356790
  C          -1.51112944159403     -1.85995943423325     -2.56124140588019
  O           0.05132376993711     -0.85788664478282      0.05785752850614
  O           1.69708916758020     -1.52151683407913     -4.11669745232344
  H           0.99541434437427     -2.69810441219831     -2.68978751722239
  H          -0.66667257906707     -0.37536776412929     -3.77542309120169
  H          -1.36225568535461     -2.72222612033583     -1.93289043306435
  H          -2.52820074934885     -1.53864223251527     -2.70046613290010
  F           2.14956009570572      1.39893889492390     -1.14759673909158
  F           1.49185604691998      1.12389232022259     -3.18734047727199
  H           0.26744427334935      0.95121131906206     -1.62298465902244
  F           1.44344303754577     -3.63188603911807     -0.47686884334447
  F           3.12047444428679     -2.37855659745747      0.02831472951131
  F           1.51126540253546     -2.64121001562312      1.43532127821961
  H           1.61154057947979     -0.63419388266350     -4.49081091662399
