30
Coordinates from ORCA-job P E -41.134568168120
  C          -1.01642232171072      0.50847285986619     -2.17544294760975
  C          -0.73333486177951     -1.82440349735469     -0.31640098534214
  C          -0.99926110912726     -1.95667978705645     -1.78355960391689
  C          -1.11589302828218     -0.93012140886822     -2.60738762875086
  C          -1.15571678898802      0.62716749916688     -0.65261715594815
  C          -0.27310720546931     -0.41255966763309      0.04374160004593
  H          -1.08695555146064     -2.96895118151450     -2.15392570394940
  H          -1.27999543590321     -1.09404266082476     -3.66355716658746
  N          -1.96718276841511      1.40461921002506     -2.83318238310442
  H          -1.64270043240176     -2.07080936954489      0.24090934299929
  H          -0.01641427577837      0.87363191448779     -2.44971736887325
  H           0.03577722720364     -2.54501815527778     -0.02892362473771
  H          -2.19156947019601      0.45277570459075     -0.36134114916839
  H          -0.32982636288918     -0.26005783392208      1.12738065064105
  H          -0.87924414571361      1.63421351531738     -0.34211280153221
  C           1.18143307800083     -0.21558254098213     -0.34458218365233
  C          -1.52596943839259      1.86482918559166     -4.13088855647418
  C          -3.32148818279341      0.89467583307406     -2.89694159236662
  H          -0.54539349835223      2.32965842095639     -4.03656200519216
  H          -2.22956359451297      2.61561250626484     -4.49043827174407
  H          -1.46477415317703      1.06422271509785     -4.88464564725028
  H          -3.61336077604826      0.49330996689805     -1.93003458593529
  H          -3.45438083535972      0.10715625785443     -3.65334788489870
  H          -3.98993390095424      1.72054579041887     -3.14277977648837
  O           1.90177215123871     -1.04828283936316     -0.82639657725421
  O           1.59065553953109      1.02795589220682     -0.05413495413463
  C           2.94102416643807      1.33137719757044     -0.37225006771462
  H           3.11463703998244      2.34732136158370     -0.02722699006210
  H           3.10268975767166      1.25983508033285     -1.44991532813537
  H           3.61516917763890      0.63374803103776      0.12882134713730
