30
Coordinates from ORCA-job R E -41.052473211810
  C          -1.28356872364748     -0.03594503449651     -2.65691079446945
  C           0.10632460668215     -2.32823849455465     -1.27972091748671
  C          -1.19984663474981     -2.22577618635077     -1.52786665931478
  C          -1.88283482773340     -1.15826292359553     -2.21326149221740
  C          -1.35567261114356      0.74271820679691      0.20326398130595
  C          -0.39182155893705      0.00289437738571      0.73762736355735
  H          -1.84732639597782     -3.02285523149769     -1.18171728599102
  H          -2.94428471344463     -1.29955967509588     -2.35309511599033
  N          -1.87896432567108      1.04854989354480     -3.23254394768361
  H           0.51112485807182     -3.16856266337977     -0.74395075728045
  H          -0.21952306739234      0.08311083687770     -2.51787202629999
  H           0.82096157941635     -1.59507463400649     -1.60956078575314
  H          -2.39335242490400      0.55345397681826      0.41777640844604
  H          -0.59945469963886     -0.81259207758018      1.41390642442539
  H          -1.13399690648794      1.57140340924834     -0.44550691942760
  C           1.04328157397328      0.22145620584919      0.49089972723666
  C          -1.06693273576889      1.98699174078437     -3.96339053064516
  C          -3.27251857425055      1.00716692440183     -3.59510871530902
  H          -0.06583915641297      2.01364730359334     -3.53744769667702
  H          -1.50310914520211      2.98537880707237     -3.88845044901825
  H          -0.98761140040364      1.72492210253526     -5.02658709675742
  H          -3.86094239193098      0.66247954463318     -2.74574673518070
  H          -3.46213852035516      0.34250138048808     -4.44704001247956
  H          -3.60172546341887      2.01169328006043     -3.85816896079389
  O           1.93218386526853     -0.31147297862188      1.10897969646401
  O           1.27855473569641      1.09632524730159     -0.50929065588886
  C           2.64578548296624      1.35020642009352     -0.78722386420911
  H           2.66524971378661      2.09254396829255     -1.58183039532548
  H           3.14698472654380      0.43345153705673     -1.10698109303886
  H           3.15217313506594      1.72939473634519      0.10287930580242
