14
Coordinates from ORCA-job NEB_product E -26.423802975460
  C           1.82017711805520      1.92804620747293     -0.30844648131134
  C           3.28733436501980      2.22628786636193     -0.41498522970862
  Cl          1.58433547847630      1.18732227383293      1.31074277846072
  H           1.57357706109233      1.16183106880670     -1.05029705408441
  Br          3.88317465839842      3.58648423219525      0.84439339453351
  C           0.93567362687542      3.16196207245704     -0.48253922115993
  C          -0.51373800623031      2.78465822949289     -0.52410794878128
  C          -1.30648167699990      3.01643585452951     -1.55221622711966
  O           4.07213276516454      1.73084441710625     -1.14557313911903
  H           1.11155647696650      3.84899750044766      0.34933103692538
  H           1.21899605996680      3.65980888249350     -1.41358100899890
  H          -0.88625002885876      2.29403484971416      0.36389939758072
  H          -0.95280889952196      3.50564345602749     -2.44524861735138
  H          -2.34567899840439      2.73784308906177     -1.54167167986578
