17
Coordinates from ORCA-job NEB E -37.693480846660
  C           0.66919706915547     -0.12716279843726      0.85158572640319
  C          -0.74405084125378     -0.29060080679392      0.61215530844187
  Cl          0.99964629492134      1.46040225466148      1.69322219011705
  H           1.08346820764227     -0.90055123227184      1.49580152221442
  C          -1.47981786900007     -1.51274380109396      1.06512345711121
  C           1.40122582244455     -0.08572107527009     -0.53675642389826
  C           0.74110460192353      0.87827397746110     -1.37020812973060
  C          -0.63828953663530      1.31919961528701     -1.07685762010624
  O          -1.40529800171038      0.52361353928793     -0.22875342734236
  I           3.60327610141316      0.33692237231298     -0.29659778573538
  H           1.44710159951075     -1.11049410943148     -0.89617726856407
  H           1.31394493695566      1.56457167040280     -1.97078755530674
  H          -1.22945457201287      1.37777538758095     -1.99905638146080
  H          -0.59529895913456      2.34316624844186     -0.67218077432527
  F          -2.79598501064020     -1.41933662956799      0.82159420666956
  F          -1.03857876559160     -2.61819314734307      0.37384616500679
  H          -1.33219107798798     -1.73912146522650      2.13404679050562
