17
Coordinates from ORCA-job NEB_reactant E -37.736023666580
  C           2.06557210156833     -0.27719029302068     -0.24595140813375
  C           1.55129949076832     -1.04936896114001     -1.20585050502166
  Cl          2.86157997458152      1.24448932294016     -0.41482617315380
  H           2.00580759262044     -0.59319591464798      0.78214207830511
  C           0.87905385152271     -2.34878129046501     -0.78380786580063
  C           4.24088584176428     -0.39099090595107     -4.48079546155908
  C           3.61987047210654     -0.17447435207945     -3.33847167588394
  C           2.14472504089552      0.09112959160290     -3.25818766203162
  O           1.46404819128291     -0.92876441569506     -2.54206743963089
  I           6.30464583346221     -0.75043535863191     -4.61024621945675
  H           3.74792335602913     -0.38283264973850     -5.43830136136858
  H           4.14944301293045     -0.19919159658492     -2.39748049548052
  H           1.69442135135658      0.06171715289227     -4.25359494064024
  H           1.95922480931802      1.07139206141583     -2.80787305779238
  F          -0.42003453212643     -2.35535103224865     -1.15493144019022
  F           1.45958062906564     -3.40224741649734     -1.39881035493157
  H           0.92285298285384     -2.52150394215056      0.30155398277052
