17
Coordinates from ORCA-job NEB_product E -37.742467603980
  C           2.97585075508645     -1.41852890848071     -1.66246804144930
  C           1.46529100405648     -1.49046797683989     -1.54969013360346
  Cl          3.47648169804842     -0.55128035915959     -0.16766143538997
  H           3.41399291909130     -2.41867525975596     -1.59666118212389
  C           0.95949385625583     -2.36830549778161     -0.38137503061305
  C           3.42046573874952     -0.69292488060926     -2.91894886583446
  C           2.98386816055367      0.72446918038228     -2.99619062146391
  C           2.42810804591798      1.25342667398620     -4.07137205400767
  O           0.69657207283031     -0.90166932499915     -2.24993408017166
  I           5.60379656614441     -0.78540715267420     -3.03656169435608
  H           3.07033612973025     -1.25431486773482     -3.78710743913898
  H           3.17317523035320      1.31994815588185     -2.11420611185170
  H           2.24233393271138      0.67438393319489     -4.96083666077607
  H           2.12673697909109      2.28532217861701     -4.09788926791746
  F          -0.16505241751943     -3.01143357312379     -0.74661017268159
  F           1.85884117892122     -3.31365479748060     -0.03414977817520
  H           0.73490814997792     -1.75538752342267      0.50766256955445
