27
Coordinates from ORCA-job NEB_reactant E -48.196560797790
  C           1.52606292880920      0.55674149993521     -0.24736530320509
  C           1.74112832002952      0.47929358856388      1.07614605206957
  C           1.95325092125075     -0.52211178678483     -1.17534222837928
  H           1.03264737216565      1.39653854280526     -0.69866089240455
  C           1.24902074144066      1.56991083537229      1.98701874079268
  C           4.53882685024417     -2.29434296936433      3.48460232957484
  C           3.28475116721082     -2.12086722538368      3.08283142830722
  C           2.67107418504155     -0.76663536078848      2.92569948621402
  O           2.35977727278595     -0.61398382060253      1.54461688230964
  O           5.21378153896826     -3.44642257453336      3.65187502212631
  H           5.16790370687953     -1.45723154965234      3.75989399442810
  H           2.65247961239065     -2.94250738422012      2.78924994121843
  H           3.37751409700358      0.00914016314152      3.24587859426452
  H           1.75453369328092     -0.69299330428107      3.52606840090711
  F           1.61324324798788     -0.24349205152315     -2.44665097788213
  F           3.28535831373200     -0.73229214952697     -1.18667363368770
  F           1.40142748628037     -1.72266602505939     -0.90121920501665
  C          -0.18503162648608      1.28588946770374      2.44383049951075
  H           1.26742845812528      2.51226614696087      1.43969242626619
  H           1.90148517152175      1.66950437493612      2.85478092646395
  H          -0.84577017112502      1.22859399487060      1.58293828929294
  H          -0.53163358899875      2.08157091868740      3.09843425178662
  H          -0.24903717183874      0.34381966712027      2.98314121775221
  C           4.56114602572056     -4.64476906336721      3.29450717252966
  H           5.28346567237013     -5.44134616459585      3.46239949705645
  H           4.26451639321257     -4.63200985199205      2.24203549873162
  H           3.67764938199686     -4.81359791842183      3.91757158897256
