27
Coordinates from ORCA-job NEB_product E -48.195913447210
  C           2.58041857371258     -0.72720931994073      1.27735473202035
  C           1.67035066832559      0.26302011526067      2.03133363729165
  C           1.77862487136470     -1.39857882533467      0.16905535526517
  H           3.39461442766342     -0.19232740654796      0.77678717654188
  C           1.57384137336778      1.62753717516532      1.40210671140656
  C           3.23053378746677     -1.75169429888623      2.24054410196728
  C           2.38094210125872     -2.97464954857512      2.46850817541671
  C           1.63101728700595     -3.15430089346079      3.53796600226915
  O           1.11886334008211     -0.04816033342247      3.04971172341312
  O           4.48646566731384     -2.06556128916029      1.66865582052922
  H           3.38414894421028     -1.23872309371426      3.20606015038695
  H           2.43733697093015     -3.71683481573781      1.68410001345941
  H           1.56786827544366     -2.41143678726065      4.31503439164761
  H           1.02793919741276     -4.03682991431646      3.66095447234785
  F           2.44096963244097     -2.38405798971587     -0.44069744817941
  F           0.61287769196391     -1.90978521295341      0.58021825074713
  F           1.46716310716105     -0.51510295353971     -0.80260024975437
  C           0.59063122486033      2.52663805517376      2.14042396631269
  H           1.28411471856040      1.51889166838216      0.35520479235238
  H           2.57563585785693      2.06663748824322      1.41412037410795
  H          -0.40556658783709      2.09346732291775      2.11424983610296
  H           0.55902903093691      3.51017085723334      1.68008752763420
  H           0.88533354016385      2.63250777412197      3.18109942483334
  C           5.31656758943459     -2.81997831286444      2.51748747348989
  H           5.51868066419435     -2.27800734877621      3.44971182240897
  H           6.24604295596722     -2.97305013293726      1.97383607456568
  H           4.87015508873827     -3.78878197935385      2.76328569141565
