20
Coordinates from ORCA-job NEB E -33.366061443450
  C          -0.08704705875256      0.14494876679156     -0.83751681050139
  C           1.27783303670926      0.11274410918472     -0.58906461706085
  C          -0.95171650637517      1.04753489724211      0.00185751041794
  H          -0.38744229162608      0.06782838321549     -1.87707963518786
  F           2.05305872321456     -0.39439460328285     -1.61515253309862
  C          -0.43344726850193     -1.71300279586306     -0.11538839616803
  C           0.10240873228154     -1.64650741271170      1.16370565182483
  C           1.49680857171523     -1.45215660131992      1.28649889641013
  O           1.79413197931911      0.05137890922333      0.55880678576639
  Cl         -2.14413969396298     -1.93010735898519     -0.29465427069125
  H           0.10785756348279     -2.22750026911590     -0.90097838998782
  H          -0.54177643713872     -1.35481790717082      1.97936765342937
  H           2.14356487918430     -2.05568401454809      0.65898522120528
  H           1.89046617657719     -1.28971011876660      2.28005649790430
  C          -0.94447055361217      2.46113816523698     -0.57846192168104
  H          -0.56985909786846      1.07164372928803      1.02343302955421
  H          -1.97496817363881      0.67081283425067      0.01622147658799
  H           0.06343376129220      2.86886527649169     -0.57022060377997
  H          -1.58635562878494      3.10893180938814      0.01291788535568
  H          -1.30834071351437      2.45805420145142     -1.60333343029929
