20
Coordinates from ORCA-job NEB_product E -33.410794761770
  C           2.48849152870833     -1.13099778072492      0.27824515409014
  C           1.15406880100833     -1.09134716997767      0.96558190403572
  C           2.40892603719841     -0.28700509239059     -1.00017928717542
  H           3.22122233907207     -0.69454005913237      0.96835695821817
  F           1.22968127456873     -1.65334202366598      2.21148686700560
  C           2.85989449917218     -2.62097816805120      0.09292798158333
  C           2.16318110534732     -3.27176882890370     -1.05550165489616
  C           1.22171846869929     -4.18450282141161     -0.90264039538234
  O           0.11932005383177     -0.66843725521470      0.59523844959697
  Cl          4.63782936293478     -2.79621708424233     -0.12815948620327
  H           2.64211856332494     -3.15714097464069      1.02149174062085
  H           2.48707944496887     -2.96551302490765     -2.03916256534516
  H           0.89566314920736     -4.50977133297813      0.07182990149889
  H           0.73254428603072     -4.63824682095335     -1.74654051953007
  C           3.75254453362552     -0.07688544002958     -1.68504471511189
  H           1.99733248456111      0.68549110224224     -0.71981652635703
  H           1.69975987886735     -0.74714543640766     -1.68947747179517
  H           4.47674147121873      0.33994148692411     -0.98908486082343
  H           3.63542334987130      0.61717532176175     -2.51362379253569
  H           4.15135936778288     -1.00806859729596     -2.07482768149403
