19
Coordinates from ORCA-job NEB E -37.466175677190
  C           1.05346742121592     -0.35469987706022     -0.41982277939364
  C           0.74360460320338      0.49957297481716     -1.49177391667827
  C           0.60698216890175     -1.77605427234167     -0.43178774833684
  H           2.06022851040682     -0.27528051197603     -0.02122568539649
  H           1.46572279625629      1.31181982861519     -1.67124395772910
  C          -0.04469946977237      0.71477291047368      1.03690368708468
  C          -1.30534094529428      0.66637333113640      0.41247979721760
  C          -1.55250467660198      1.37509372535544     -0.74246584232047
  O          -0.39371308714640      0.57502691670215     -2.01378283264904
  N           0.14466031071593      0.14140386165013      2.25928254979953
  H           0.55790626650265      1.60287763509633      0.88534569446413
  H          -1.96657535262054     -0.14000796992553      0.69262753680634
  H          -1.08205201755047      2.33345864031379     -0.89864256437494
  H          -2.48796340562091      1.23538201663222     -1.25812365687668
  Cl          0.84611156595364     -2.57729913562754      1.14731634459064
  Cl         -1.04172818420040     -2.07209494842397     -0.96552842559185
  Cl          1.69924261230933     -2.67360188359820     -1.58474309091997
  H          -0.38899581762678     -0.69415819618410      2.44868736354961
  H           1.08564670096843      0.10741495434477      2.61649752675475
