17
Coordinates from ORCA-job NEB E -37.618353969990
  C           1.06783845792937     -0.06934208626606     -0.84393902275943
  C          -0.30865403128780     -0.22729956208086     -1.01657935942963
  H           1.66007260396960     -0.97350029191936     -0.84610478642524
  H           1.54707979691227      0.76527719425959     -1.33815025837782
  C          -1.15630506031134      0.91916548935362     -1.51496631733736
  C           1.16759199725298      0.27242855760419      1.02384884299390
  C           0.47972016683065     -0.79986125210922      1.58109409448442
  C          -0.89480839115915     -0.97360641656146      1.19840392803753
  O          -0.92187125112975     -1.17940197126910     -0.35777344264125
  Br          3.03856805396392      0.42128075546293      1.41276554908145
  H           0.71531403565784      1.25650774820850      1.01094284280686
  H           1.03686823038547     -1.66993218636278      1.89746731094363
  H          -1.53021546497522     -0.10025445582209      1.33636056576958
  H          -1.36388976731923     -1.87799773148907      1.57058852592116
  Cl         -1.31071930930414      2.22040413950588     -0.26047385482996
  Cl         -0.43798205025807      1.66176220029594     -2.95398631199532
  Cl         -2.78860801715740      0.35436986918934     -1.89949830624252
