17
Coordinates from ORCA-job NEB_product E -37.656006626970
  C           2.17994778285438      1.37781367538304      1.51861418994413
  C           1.03095237193057      2.34404870774758      1.38599463283907
  H           1.88834467543726      0.46363833782243      0.98959281013827
  H           3.07598298557833      1.77346125588926      1.03886549977709
  C           1.12642083780339      3.27513932983458      0.16080314050909
  C           2.44389326663493      1.03326443562397      2.98072733302147
  C           3.40875317572534     -0.08732101646329      3.14161702417541
  C           3.17917963751724     -1.14184941508527      3.90250402652837
  O           0.11444060524811      2.42426278551453      2.14645507832479
  Br          3.20282116926266      2.64778807475996      3.86334611651921
  H           1.50694881460684      0.84292067534128      3.50711069408436
  H           4.34133632375579      0.02335390787444      2.60501069492426
  H           2.26067212743463     -1.25582058138828      4.45456635599154
  H           3.90082296667112     -1.93330446125485      4.00277596480637
  Cl          2.43725877626835      4.43298639893659      0.51670558387002
  Cl          1.53183977813307      2.35033736423958     -1.29846408194374
  Cl         -0.38711529486201      4.14658052522445     -0.09252506350972
