21
Coordinates from ORCA-job NEB E -43.139662389990
  C           0.32127143507443      0.51451312952063      1.61529238288608
  C           0.61314622166907      0.07839195928242      0.31471313785199
  O           1.23206866701945      0.72966488326017      2.52834348830285
  H          -0.68614301062183      0.89400135211597      1.75739552902188
  C           1.73798311206100     -0.65707186398197     -0.03504401934680
  C          -1.44760477337210     -1.13919660917178     -3.72062098665957
  C          -0.80967084831670     -0.46486832868072     -2.79931003334370
  C          -0.89787128362236     -0.80896826705429     -1.34283818886540
  O          -0.43996252058347      0.27356875898579     -0.53556742794214
  I          -1.28580157177039     -0.68718253120345     -5.76234803755230
  H          -2.08109344588828     -1.97530104982464     -3.50254395998596
  H          -0.20509123947234      0.38924603560480     -3.04060786685892
  H          -0.34170575474529     -1.73038053349665     -1.11498058660866
  H          -1.95316822702181     -0.97882077566254     -1.06198201835039
  C           0.79968325792980      1.13817498731276      3.80576114644878
  H          -0.17764157903819      0.72680083814110      4.05176386158795
  H           0.73552131552298      2.22511401449938      3.83999706369921
  H           1.54717711375498      0.79276738996758      4.50584363899841
  Br          2.96671784509327     -1.24234069438081      1.25571545159716
  Br         -1.91848144164863      2.90451601289434      1.03591220355633
  Br          2.29066672797640     -0.98262870812810     -1.79489477843679
