21
Coordinates from ORCA-job NEB_reactant E -43.189758662090
  C           1.16458646639059     -0.23193257007064     -0.40543481701470
  C           0.89428160813051     -1.43414727772242     -0.92560611783160
  O           0.49059959553114      0.90563526549062     -0.70814107964115
  H           1.96315832945607     -0.12830512927720      0.31888533717796
  C           1.59353396442744     -2.68132897278055     -0.52108551003042
  C           1.24288837933716     -0.08424259482075     -3.74772097936363
  C           0.01847866142245      0.16768400025096     -3.32898936042341
  C          -0.79477078167284     -0.78435571033637     -2.50119054355610
  O          -0.04423237924432     -1.79171382253831     -1.85934096933923
  I           2.38352518418064      1.30695735106411     -4.83426592550260
  H           1.76596453736408     -1.00782609642951     -3.56771091434105
  H          -0.47384985101044      1.10287411302654     -3.54895111256441
  H          -1.49122295493548     -1.33802200021185     -3.14106705453982
  H          -1.37301970901710     -0.21547782540897     -1.76431072395113
  C           1.17295966356008      2.10507634136269     -0.40470230538536
  H           0.45774579725642      2.90838168089732     -0.56711735022491
  H           2.03373214006063      2.24336984634231     -1.06580667012127
  H           1.50970902576227      2.11612970088401      0.63591085523217
  Br          3.00881060815300     -2.46841952394207      0.76433408568539
  Br          0.27974041688358     -3.94215929038368      0.22553292956277
  Br          2.35618129796410     -3.52377748539625     -2.11882177382747
