21
Coordinates from ORCA-job NEB_product E -43.185410656610
  C           0.97702115609629     -0.10477583666022     -1.41444490203465
  C           2.18932787298628     -0.96584747594561     -1.11321381180820
  O           1.29299360142122      1.25442002235320     -1.41967041213451
  H           0.16376374041146     -0.31595958339783     -0.69592954929904
  C           1.95867499069831     -2.17346571223444     -0.21116123206754
  C           0.49287512320454     -0.46013719708574     -2.83149256655443
  C          -0.84627496297813      0.13091105150906     -3.09229951254505
  C          -1.88417602729729     -0.58154780320851     -3.49028245396018
  O           3.28862379970940     -0.74132354065082     -1.52441775742727
  I           1.92674595308314      0.32909502978709     -4.24829708518319
  H           0.47985519628353     -1.53949281172400     -2.98588255304658
  H          -0.91224869521506      1.19757808103579     -2.93251180757405
  H          -1.81757295257319     -1.64500342911530     -3.65375860730113
  H          -2.84187854930500     -0.12658070373050     -3.67133008055771
  C           1.62163920105209      1.80561354172547     -0.16579490031381
  H           0.81355092403837      1.64915191532542      0.55815189449010
  H           1.75746583597503      2.87022602678755     -0.33992186213323
  H           2.55059679958883      1.38561664315110      0.23339824546355
  Br          1.74466525318829     -1.42610329656963      1.58846083270861
  Br          0.36680154466342     -3.18684105246558     -0.65748152179807
  Br          3.50695019496846     -3.32963386888650     -0.25642035692363
