24
Coordinates from ORCA-job P E -41.837147806450
  C          -0.98099464510737      0.76790178174073     -1.96124653208227
  C          -0.72277171772185     -1.80095924645474     -0.46706114774042
  C          -0.91093632768476     -1.72103913377521     -1.94728615756078
  C          -1.01173584326390     -0.58638200164941     -2.61848859043581
  C          -1.12122580457099      0.67856644404787     -0.44757124001207
  C          -0.26078508899237     -0.45803386364533      0.10118361039380
  H          -0.95234732186485     -2.66221029734692     -2.47534362853847
  H          -1.11957272406901     -0.57417360968767     -3.69371931927229
  N          -2.11120282840063      1.53679168311313     -2.55888677313670
  H          -1.66388440750094     -2.10401868596819     -0.00005769389812
  H          -0.07267367313453      1.30259212555125     -2.26182550734985
  H           0.02325654218803     -2.56503061977317     -0.23961146089588
  H          -2.16636788558319      0.47434201530810     -0.20593933195333
  H          -0.34810675985687     -0.47542349658415      1.19375298872564
  H          -0.83828788365769      1.62638512797033      0.01115494189009
  C           1.22281049909571     -0.26741754011112     -0.18842863650720
  O          -1.89360397068827      2.06225737034910     -3.62305892807090
  O          -3.16413997965820      1.55532309673151     -1.97324138734504
  O           2.01411073759898     -1.16465610288185     -0.30086640362370
  O           1.55910984217729      1.02428124739667     -0.26830915375744
  C           2.93639053041989      1.29975534018486     -0.49278863645783
  H           3.02170429336916      2.38053115986155     -0.56818421832939
  H           3.27249045524939      0.82012237824185     -1.41402558309007
  H           3.53724396165697      0.92404482738084      0.33723878904803
