24
Coordinates from ORCA-job R E -41.746288023450
  C          -0.37370877096367     -0.67043354386562     -2.68554911923175
  C          -0.12140103264064     -3.62216418813429     -2.18673442793726
  C          -1.24922282962789     -2.97009295206277     -2.45987832744662
  C          -1.37468578844300     -1.53131939109546     -2.47207083050373
  C          -1.30581225106517      2.57512578336206      1.14261756963354
  C          -0.87669181948773      1.34194392489023      0.92232178962012
  H          -2.15794372442613     -3.51932097082551     -2.66807004060305
  H          -2.36532476702375     -1.12093538468758     -2.31303195404197
  N          -0.59313753548802      0.72963261150762     -2.65419464588791
  H          -0.07756420784713     -4.69693271279706     -2.18698123711172
  H           0.64836605534115     -0.94398137821824     -2.88859590233683
  H           0.77843030130482     -3.09892992297494     -1.91322713653048
  H          -2.25815277290362      2.76431764917166      1.60675038335912
  H          -1.46215450487953      0.46995750938804      1.17719834909560
  H          -0.71305255790830      3.42869505007707      0.86220959181190
  C           0.40168828825320      1.03047760944088      0.25131951419062
  O           0.36406444752353      1.43867167649544     -2.90875749108443
  O          -1.69768948757775      1.15124219236848     -2.37043311676921
  O           0.66646072677482     -0.06774621475754     -0.19136241714507
  O           1.22377501697321      2.07521528916227      0.18123662092224
  C           2.43915369181008      1.88434225175658     -0.53075968183816
  H           3.07591617998349      2.73024943640175     -0.28651091744130
  H           2.23066250603542      1.86021128492236     -1.60298390879807
  H           2.90845483628258      0.94490439047457     -0.23081266392558
