24
Coordinates from ORCA-job TS E -41.732094532040
  C          -1.16006882313510      0.21346233292768     -1.52209225688157
  C           0.24075533725584     -1.88544107090842     -0.16667116141878
  C          -0.99676214102827     -2.06475206392411     -0.69154772912818
  C          -1.67492254603632     -1.04347100541977     -1.38572967458374
  C          -1.05942125682586      0.80574502296126      0.68741741544219
  C          -0.32930200851555     -0.13213061039072      1.34325397386651
  H          -1.56290121302370     -2.94918707845064     -0.43668857738925
  H          -2.71416238419532     -1.18981294770706     -1.64956885895274
  N          -1.96263640410299      1.25451319335434     -2.07417874233523
  H           0.67812320371347     -2.62905455027748      0.47837137685948
  H          -0.10785498945854      0.44623715600414     -1.53147923106315
  H           0.91839626226022     -1.15309900517191     -0.56609692480958
  H          -2.13491151148769      0.79545590702336      0.74918418245669
  H          -0.80632523149080     -0.90217551429010      1.92962209549524
  H          -0.59452841239874      1.72098608200138      0.36151293156502
  C           1.11272886961654      0.03847950437543      1.61195162581064
  O          -1.38503803471787      2.27191700687558     -2.40298744073823
  O          -3.16086609806129      1.07915741915905     -2.16249687333844
  O           1.71452035615675     -0.54432370099019      2.47865071782383
  O           1.68757908053783      0.92656545706010      0.78173713405398
  C           3.06637263014469      1.18346019166797      1.00448201913776
  H           3.34432466908779      1.97164721413184      0.30953212640164
  H           3.65569734771077      0.28273104207530      0.81886909238795
  H           3.23120329799415      1.50309001791296      2.03495277933798
