17
Coordinates from ORCA-job NEB_product E -37.309228070010
  C           1.45500515972103     -1.51751522212591      0.12717652694723
  C           2.83591293182980     -1.55688941649985      0.81481689759419
  N           1.68002741832616     -1.33303568368993     -1.34352679429836
  H           0.92021192953391     -0.62256693441014      0.47401292644124
  C           2.70869314818587     -1.84681915787216      2.23415488662113
  C           0.65308694312367     -2.77837580133175      0.45956647582956
  C          -0.54218575356893     -2.99200240014893     -0.40536555841968
  C          -1.76909842589756     -3.05722661030195      0.07890656684122
  O           3.87332759212338     -1.34294424173810      0.26443160893649
  Br          1.87615694378714     -4.35835018722501      0.32672304483801
  H           0.36678525220457     -2.74536276758415      1.51425828722394
  H          -0.34705247283463     -3.13010356112710     -1.45928092158463
  H          -1.97684642601161     -2.94625968591298      1.13080270780895
  H          -2.61547969230040     -3.22225647382431     -0.56363074871676
  O           1.62099372931938     -0.19896117406626     -1.73793959786434
  O           1.90205066425141     -2.31275661710217     -1.99752853602978
  N           2.59401105820679     -2.05447406503927      3.35272222783160
