24
Coordinates from ORCA-job NEB_product E -43.719274100010
  C           2.36885212981842     -0.98499116881560      1.17473232281126
  C           2.08203368816462      0.20325301795446      2.10116549917555
  N           1.15210837159787     -1.30149671413900      0.39470966555918
  H           3.15913476890057     -0.71550050287428      0.46919471462581
  O           3.11566493157790      1.03714912511169      2.08856217344387
  C           2.75314204100745     -2.20859504440990      2.06393388574876
  C           3.11462945775006     -3.36121022865942      1.16524099542697
  C           2.47492645448992     -4.51465778666322      1.18475366914621
  O           1.08475220828813      0.33831462535557      2.74500206407096
  O           3.72396186417549     -1.86715345023073      3.02247351783577
  H           1.86722471731750     -2.46254274378097      2.65900716557613
  H           3.92848113807448     -3.18721856910748      0.47428658435757
  H           1.65414810632425     -4.69399163731236      1.85837745184385
  H           2.74154083797023     -5.32035788118521      0.52251556948185
  O           1.15896892359341     -0.95480705863724     -0.76173360306944
  O           0.25420522640214     -1.86763205913467      0.95652633697937
  C           3.02579126888098      2.15660209148973      2.96563551487532
  H           3.93207562600890      2.73519927083714      2.80945577266677
  H           2.95810712443550      1.81567847288480      3.99980484366016
  H           2.14198692334872      2.75096760556723      2.72810093513126
  C           5.05083117843489     -1.69173086234444      2.56937062717632
  H           5.61118035427269     -1.37168589885636      3.44561545577071
  H           5.12443754630162     -0.91929962071869      1.79853995463321
  H           5.47651511286425     -2.62799298233104      2.19712888307258
