25
Coordinates from ORCA-job NEB E -49.405745988740
  C          -0.49482486142810     -1.07652191556133      0.48559621477669
  C          -1.71081779709603     -0.98132000864828     -0.22714812320398
  C          -0.52693177492753     -0.66047183830899      1.92800615830666
  H          -0.00404961222846     -2.04650533693348      0.37398986377246
  N          -1.88595892192232     -1.89761762953852     -1.32130389615804
  C           0.57986120718037      0.07002175845061     -0.63751097890377
  C          -0.20183851198119      1.22844526942085     -0.69083804746938
  C          -1.55757274384525      1.16799933950268     -1.20078926653841
  O          -2.32441485891366      0.17192497694893     -0.33412627778506
  C           2.02950531570124      0.13656279947565     -0.20170195106025
  H           0.47754633773624     -0.61410580824415     -1.47778652343034
  H           0.08562208841799      2.09650140434765     -0.12049846022227
  H          -1.66179169276620      0.75601234341378     -2.20813909968318
  H          -2.11779240190293      2.09255687156621     -1.09562647003576
  Br         -1.81826747539888     -1.87432084879797      2.83740308045373
  Br          1.16365960940404     -0.94432113749577      2.84863884886529
  Br         -1.12399609388389      1.14227275484294      2.28092917829818
  O          -2.63461362719953     -1.55311855376431     -2.21361212879124
  O          -1.25258955240485     -2.94053536287569     -1.28823443383710
  C           2.42886463126982      1.36289661316041      0.61027795653627
  H           2.62025679218896      0.12795043932775     -1.12260318223984
  H           2.29888806109452     -0.77382177896589      0.33508097520098
  H           2.38806140922975      2.26011160334242     -0.00226977970430
  H           3.44896887302390      1.23985849128905      0.96311023589488
  H           1.79422560065197      1.50954555404546      1.47915610695779
