23
Coordinates from ORCA-job NEB_reactant E -53.092020405640
  C           1.35861857061383     -0.52277903397845     -0.09427049900424
  C           1.97678178442172     -1.60445398197421      0.40554975843148
  C           1.99599508849270      0.49245153325510     -0.95891516550839
  H           0.32048908710224     -0.32782428119122      0.11639490315794
  C           3.40886282448553     -1.96463350354364      0.17387452176809
  C          -1.23007894197273     -3.50302253253386      3.38176300710240
  C          -0.36671727594847     -3.54978886331585      2.38114440701244
  C           0.01834180720779     -2.37064523714791      1.54854208527752
  O           1.37777097910718     -2.52124411913393      1.19188600752916
  C          -1.62231449532686     -4.71109092028833      4.17277615194979
  H          -1.72818985814631     -2.59889289919750      3.69787696351703
  H           0.11543089356316     -4.47732861883414      2.10452318582920
  H          -0.13926725117732     -1.43272515834523      2.09529331615170
  H          -0.60703243604610     -2.35892749072152      0.64211970516985
  Cl          2.61391390698722     -0.20105181850768     -2.49405720280765
  Cl          0.81802003918705      1.75150594611753     -1.39040078303007
  Cl          3.37524368443305      1.31237370123375     -0.15594458052081
  H           3.62684351635902     -2.88963089959685      0.69966865806099
  H           4.06358032774585     -1.17869101664544      0.54092910893881
  H           3.60184070625352     -2.09807533997629     -0.88728345642785
  F          -0.99050974547247     -5.82762355030363      3.79236008078278
  F          -1.37103274808876     -4.55273620439146      5.48346892725509
  F          -2.94039046378085     -4.96356571097923      4.07390089936474
