19
Coordinates from ORCA-job NEB E -36.709285681720
  C           0.52168527552558     -0.11049431334755      0.96746540570141
  C          -0.79915670180628     -0.65091941688135      0.79331411902072
  N           0.68543012770241      1.19952385023861      1.47370619132199
  H           1.26282562317234     -0.81053160436590      1.34725443640397
  N          -0.87060157203319     -2.10799648933822      0.63633448451241
  C           1.01703199537118      0.07557072961944     -0.78159057023423
  C          -0.02880872179006      0.89071791401366     -1.31644449845572
  C          -1.30897891569779      0.39072151622433     -1.47071617713309
  O          -1.72155841738988      0.03018907395113      0.28782832640534
  O           2.28399355143792      0.56932792245588     -0.70594570463905
  H           1.06393122000985     -0.95552891063948     -1.12639175241363
  H           0.11164961495150      1.96197721672117     -1.24950318191764
  H          -1.46212267108223     -0.63270202568656     -1.78351505950581
  H          -2.10517849177350      1.06618036080484     -1.74035976561555
  H           1.08047397945939      1.21844531923293      2.40292600561862
  H          -0.18368727105516      1.72062060514925      1.43900592239428
  O          -1.83209160646645     -2.55423768067520      0.05009361155263
  O           0.03012264038815     -2.76840890984517      1.12264508953777
  H           2.25504034107622      1.46754484236818     -0.34610688255442
