19
Coordinates from ORCA-job NEB_reactant E -36.747384108990
  C           1.48690258228573      0.05157366896043      0.24695724836228
  C           1.77853911710819     -0.47062992298142     -0.97097411982734
  N           0.61899195825391      1.06371181552039      0.43371965456904
  H           1.99903726030927     -0.34357770316586      1.11228759869447
  N           2.72548828595645     -1.52640982950544     -1.07046187996224
  C           3.02163666455291     -0.03562677784568     -4.85747245119283
  C           3.03888611199676      0.39204032293513     -3.60076722181117
  C           1.82246554868793      0.91378326119742     -2.91100289450681
  O           1.14354773291419     -0.07917466609805     -2.11389077890241
  O           4.05992280816928     -0.56169472836588     -5.52971473263851
  H           2.13871058838193      0.03113617119287     -5.47735783556797
  H           3.94108941019829      0.30626143816534     -3.00948017499124
  H           1.06849143284525      1.21430491479206     -3.64055127260638
  H           2.07673485136719      1.76707509890335     -2.26740203321488
  H           0.28329019992178      1.27170537919075      1.35690395955067
  H           0.04359971848426      1.32983627849790     -0.35039181127238
  O           2.92257795740944     -2.02463248852097     -2.16227964236473
  O           3.29286267036029     -1.87536965841505     -0.04324340907309
  H           4.79912510079694     -0.71381257445730     -4.92627820324448
