17
Coordinates from ORCA-job NEB E -40.922900031330
  C          -0.68227997799619     -1.22484185819581      0.55758084344128
  C          -0.10948072898969     -0.80139080658729      1.75753003249795
  Br          0.23455724316072     -2.64318073220529     -0.33713627091646
  H          -1.75426532405527     -1.36290145802015      0.49998507087042
  I          -1.47161789754262      0.27517548544948      3.06456899197013
  C          -0.29740158661295      0.41300644952841     -0.49111518166624
  C           1.08661734569475      0.52924750792769     -0.33252627166420
  C           1.59906093889564      0.77300181386681      0.96160491501064
  O           1.11636967879802     -0.55669167896208      1.87565961355828
  C          -0.88229296944420      0.28326026638077     -1.87340151995984
  H          -0.92785887429577      1.06214422570879      0.11353473574748
  H           1.73109167277674      0.06858494201338     -1.06652566696158
  H           1.11865448955380      1.54630958536992      1.55497252538029
  H           2.67307744616760      0.73984372365596      1.08485625637886
  Cl         -1.01061082079072      1.95573006741919     -2.52654579581368
  Cl          0.10326991415589     -0.65905117177890     -2.99934557489343
  Cl         -2.52689054947575     -0.39824636157087     -1.84369670297989
