17
Coordinates from ORCA-job NEB_reactant E -40.955936725890
  C           0.63441779188298      0.12161628865328     -1.35959667641158
  C           1.94400902914299      0.32874333629021     -1.32154853572707
  Br         -0.55923882431524      1.56490092955008     -1.60533048286208
  H           0.17298185224774     -0.84144743947543     -1.24584921055742
  I           3.19108058267609     -1.39235414516996     -1.09735656055663
  C           2.49172774700257      1.46715005360499     -4.15445092078714
  C           3.63054211187881      1.44505281674527     -3.47916740635777
  C           3.71731686801920      1.74166803123879     -2.01212548519021
  O           2.50157626469629      1.53811993930507     -1.31960934717871
  C           2.32587877320266      1.11238440306092     -5.58561964925584
  H           1.56042386941966      1.74802929036249     -3.68062563578538
  H           4.56385813356841      1.18817209093676     -3.95707871521647
  H           3.95910451490113      2.79654454491453     -1.84766774583821
  H           4.51157417255095      1.13169880865424     -1.55994769727455
  Cl          1.27061255664525     -0.33505397716028     -5.68624579603141
  Cl          1.51764072892500      2.45355428486388     -6.44448235902150
  Cl          3.84409382755551      0.74862074362516     -6.41499777594804
