19
Coordinates from ORCA-job P E -37.353994461150
  C          -1.27896152199984      0.41435103796212     -2.35259947175910
  C           0.01137562275904     -1.59763215118872     -1.03184126901458
  C          -1.30039434732305     -1.90898909048551     -1.68064157307288
  C          -1.92825391374897     -0.94000642777672     -2.32710089984960
  C          -0.84320278212462      0.82101686952919     -0.93138048280646
  C          -0.12252047836713     -0.31898880410014     -0.20105301121793
  H          -1.69840234260480     -2.90715859029636     -1.60769920003230
  H          -2.87597898176084     -1.07067340615244     -2.82237812789132
  C          -2.22254883921190      1.46133172390275     -2.92017120227841
  H           0.35190757951340     -2.41605530104468     -0.39747949401658
  H          -0.40152658588421      0.39416217462995     -3.01257393961038
  H           0.76668901800629     -1.43969038310902     -1.80896498256263
  H          -1.73841301757911      1.09246022578766     -0.36677657272407
  H          -0.63730092768168     -0.54685721347784      0.73348959033046
  H          -0.21252340354982      1.70911405371034     -0.99446712983553
  Br          1.68329179705993      0.24447950481097      0.37147524252683
  F          -2.59284678579500      1.17762590373692     -4.17744815412023
  F          -3.35298465803178      1.57688896132225     -2.20684265685839
  F          -1.66686543167589      2.68251091223927     -2.95276666520691
