19
Coordinates from ORCA-job TS E -37.244923879550
  C          -0.30909491176256      0.38762265004831     -0.94084733027893
  C           1.04680839722618     -1.83254379685271      0.22839034891851
  C          -0.27457201904270     -1.87391824896196     -0.06426078813019
  C          -0.94257090537096     -0.79550082466107     -0.68158981128361
  C           0.20952888473336      0.99654981476061      1.12524754718702
  C           1.03189905209976      0.07037954078040      1.67440375711474
  H          -0.88784945073433     -2.67034267372481      0.33287837465631
  H          -2.02217551891065     -0.82736744623637     -0.73030286445924
  C          -1.10402280415298      1.53926231484115     -1.46983357573142
  H           1.50339939037457     -2.60915634412200      0.81983886282147
  H           0.73984572852933      0.44397095374851     -1.18293779061093
  H           1.72761937312546     -1.21576111749710     -0.32858157892899
  H          -0.83017097295808      1.00340533235058      1.40540237821887
  H           0.71435839820693     -0.67343596018655      2.38282638423386
  H           0.61161544833710      1.91429212200517      0.73008426836071
  Br          2.91768687350693      0.33632460937671      1.66921593683134
  F          -1.45588215107026      1.37426847011899     -2.76047327005545
  F          -2.24952858278281      1.73472808379036     -0.79488438611955
  F          -0.42689422935430      2.69722252042177     -1.41457646274453
