17
Coordinates from ORCA-job NEB E -42.482194046890
  C           0.97667077119720     -0.58254574471258      0.70699027960500
  C          -0.43985186105438     -0.58929903799075      0.79784865458452
  F           1.62539987506963      0.12855788638500      1.65474884840311
  H           1.50612931687078     -1.51779505532565      0.53535011498414
  C          -1.22648282904852     -1.71383949743389      0.17766750783974
  C           1.28011334622436      0.46530309363711     -0.77228485826077
  C           0.63786248867016      1.66384510514295     -0.41996845283501
  C          -0.76920758981261      1.61958342973857     -0.18643680440025
  O          -1.04410798659134      0.54998231999674      0.96607075626951
  F           2.62225530516160      0.50364085920236     -0.88593336155005
  H           0.86864899703381     -0.16985923748744     -1.55594859432469
  H           1.23696397431172      2.42053975059008      0.06459891573247
  H          -1.36887078826035      1.20514656682707     -0.99417765730573
  H          -1.20049052312348      2.52384475435559      0.22728996208068
  Cl         -1.35443360684406     -1.51485888115432     -1.62370952789379
  Cl         -0.47761371837733     -3.28504452821907      0.48200435935023
  Cl         -2.87298517142720     -1.70720178355178      0.82588985772089
