17
Coordinates from ORCA-job NEB_product E -42.512085698710
  C           2.05322564755295      0.31372330547670     -1.91174029190460
  C           0.83027838953168     -0.45206331210230     -2.41896370170498
  F           1.68945844027590      0.99486701590214     -0.77920676600230
  H           2.88413664619224     -0.34738296890241     -1.64563608031933
  C           1.02091598503731     -1.96942331603869     -2.54169586090487
  C           2.47779351316567      1.35589679791940     -2.97630658004365
  C           3.69754157036909      2.10052515090051     -2.53000245777472
  C           3.65187334614946      3.29136851673495     -1.96489317015241
  O          -0.20925134560144      0.07594064304051     -2.66556342281729
  F           2.73357919525778      0.67567459161787     -4.14472211321526
  H           1.62827562409283      2.02339000836538     -3.16778556054066
  H           4.62681511762956      1.57318035935649     -2.69108451280932
  H           2.72033350446219      3.80725696582113     -1.80350766348864
  H           4.54470637491758      3.79000847411349     -1.63166285290249
  Cl          2.50841154707557     -2.37032127960641     -3.41385235186752
  Cl          1.13588762036532     -2.54739191030061     -0.85443849020565
  Cl         -0.36368117647371     -2.71374904229814     -3.33713812334630
