14
Coordinates from ORCA-job NEB_reactant E -27.222432688310
  C           2.03093054661360      0.03078394517864      0.10276292034984
  C           1.28808967057015      0.28751219067595      1.17129743952744
  F           2.33979002127991     -1.21610266223242     -0.29411850606809
  H           2.44910046347653      0.79023145978668     -0.53593757920184
  H           1.08338311475988      1.32054991254663      1.42512596678617
  C          -0.33818027464975     -1.57629712128972      5.10398247953400
  C          -0.51011422383937     -1.40838313223349      3.80764415160646
  C          -0.00939928034065     -0.21453236508009      3.06176197410351
  O           0.76702082943919     -0.67269932948552      1.97133090580403
  F          -0.81633669678580     -2.64940578785689      5.74571390332233
  H           0.16200409292031     -0.89390197247480      5.77699170945642
  H          -1.01426775641501     -2.15984480888863      3.21960477686370
  H           0.59190916175738      0.42841117208158      3.71949916832102
  H          -0.86512966878637      0.36987849927208      2.68744068959499
