18
Coordinates from ORCA-job NEB E -41.941546393090
  C           0.75128066772203     -0.61955716330074     -0.25840283852182
  C          -0.74331722199864     -0.41510786600647     -0.18020743348913
  O           1.27348951221533     -0.97578825867903      0.99636246879192
  H           1.00333247502615     -1.36366513898779     -1.02398119174048
  C          -1.62964690507794     -1.48190796224036     -0.73763530969367
  C           1.21935662815477      0.77458730489808     -0.64686492662009
  C           0.32157363522437      1.72632532589622     -0.07236666092463
  C          -0.49449982624991      1.38657137167048      1.12411010841750
  O          -1.25305523429204      0.23327794504296      0.89254429000665
  I           3.38798613567256      1.13245958340976      0.05412695835390
  H           1.36803003965415      0.87948779416375     -1.71469859229049
  H           0.53524408540409      2.77643005827243     -0.21690707810955
  H          -1.20211244589949      2.17445554167696      1.39225985490881
  H           0.18598724008153      1.23013728416353      1.97651204962128
  H           1.00279975909466     -1.87204122509465      1.22465482891904
  F          -2.92611191993382     -1.22340263717882     -0.59931688950861
  F          -1.39135912631367     -1.66823446252633     -2.04857086555042
  F          -1.40897749848412     -2.69402749518000     -0.16161877257021
