17
Coordinates from ORCA-job NEB E -42.195036884200
  C           0.66590280163903      0.64633305818104      0.48665610157514
  C          -0.68184807941672      0.19034777496974      0.60262830496326
  Br          0.74041950618220      2.37089711915238     -0.67271198348871
  H           1.10469047423552      0.97408221022017      1.42478729731007
  C          -1.48174946184218      0.26728691879482      1.85980077381235
  C           1.53559573311960     -0.41859655906173     -0.24373984335741
  C           0.81009856029401     -0.91109995206002     -1.40450329659327
  C          -0.61342864254579     -0.57684741699389     -1.59076999608428
  O          -1.36518993491501     -0.30130172243289     -0.45655562802502
  Cl          3.17158461950990      0.25165685903180     -0.71937902671615
  H           1.79389521046127     -1.17772490972716      0.49884803061778
  H           1.36087474894585     -1.10354922625477     -2.31017542250500
  H          -1.15523088323954     -1.36696752443889     -2.12047178551050
  H          -0.63764466199091      0.31730944816293     -2.24286510349176
  F          -2.71089813771217      0.76048840720698      1.67217890594306
  F          -1.65529590798995     -0.94789663778387      2.43056235361226
  F          -0.88177594473510      1.02558215303335      2.78571031793817
