17
Coordinates from ORCA-job NEB_product E -42.237230861270
  C           3.10718184270302     -1.25947254411133      0.36819076992532
  C           1.60797682331351     -1.14034178664473      0.43923620770707
  Br          3.80358245334687      0.35248467071909     -0.47078382772042
  H           3.55544250167299     -1.31257733728815      1.36309145815041
  C           1.00686005756431     -1.84136302418909      1.69731158752545
  C           3.47539294582175     -2.51354962461059     -0.44586207619459
  C           2.94758933495811     -2.47707209512813     -1.84035388181804
  C           2.13700370398987     -3.39813566032599     -2.32727775937745
  O           0.90104808949128     -0.60901355331807     -0.35819164768633
  Cl          5.27179036169420     -2.64140204126116     -0.48693587257336
  H           3.11994639279519     -3.40078690170456      0.08643139174017
  H           3.28168394965035     -1.64516403019499     -2.44368121452599
  H           1.80332868643191     -4.23660466830025     -1.73749484982032
  H           1.77429947342301     -3.34644225914050     -3.33824793425523
  F          -0.31021775448801     -1.71799581177962      1.76063998212948
  F           1.29608132059917     -3.15433149997539      1.69115413907739
  F           1.52870981703248     -1.33643183274656      2.82257352771644
