14
Coordinates from ORCA-job NEB E -25.889539895940
  C          -0.92163006538350      0.84549004896991      0.11155764071639
  C           0.26483808784334      1.38744511439452     -0.31563575682940
  Br         -1.14717464025318      0.89219694386017      2.49668443918126
  H          -1.80967458593557      1.44592035864996     -0.02145888804559
  Br          0.37041583959529      3.16627533993369     -0.94284976322267
  C          -1.06703858079421     -0.67771385838752     -0.10929629796968
  C           0.24098728960461     -1.30020303233302      0.14545663071415
  C           1.47241050258632     -0.64891103399704     -0.29338662575065
  O           1.44358998045139      0.77250142693402     -0.39955135825479
  H          -1.83154384003379     -1.08795738135482      0.55078169950992
  H          -1.41012906089088     -0.81503383736302     -1.14369919050634
  H           0.32217622580419     -2.11300103507201      0.84428756866872
  H           1.76617576043015     -0.98625335285383     -1.30014936489437
  H           2.30659708697584     -0.88075570138102      0.37725926668305
