22
Coordinates from ORCA-job NEB E -45.344861264110
  C           0.37377488206092     -0.06671307004840     -0.96081582734797
  C           0.82007111965192      1.26580818781659     -0.93925843282443
  O           1.16574579780003     -1.04314556841474     -0.44489563153093
  H          -0.25627800413738     -0.34415468347951     -1.80138844543346
  O           0.12239729713441      2.12304812537291     -1.74831032744009
  C          -0.97071184786898      0.27780149930106      0.57815462661944
  C          -0.10557792515664      0.68097619290646      1.59226842410322
  C           0.55299518122340      1.91565314149851      1.45494812072354
  O           1.50925104334439      1.74170542494072      0.01696703787694
  C          -1.77340561220533     -0.97382152850357      0.74678979622532
  H          -1.53548747956188      1.03884918460229      0.04747674264800
  H           0.33217740584640     -0.07108934300043      2.22916095986485
  H           1.31472947804705      2.16597874254660      2.17793121384347
  H          -0.03642055657650      2.76353657702082      1.12416028696555
  C           1.14618905849283     -2.27358192946755     -1.13978512802215
  H           1.65206602449263     -2.99209603479129     -0.49830802162802
  H           1.68496431459224     -2.18960696976967     -2.08937687330870
  H           0.12589947100841     -2.61314523725461     -1.33522940114295
  H           0.38760247086523      3.02956070456780     -1.53952947800325
  Cl         -0.86925416462635     -2.31054948546515      1.46158396050750
  Cl         -3.14860747835196     -0.59843124294151      1.85182478731379
  Cl         -2.49212047607482     -1.52658268743734     -0.78436839000967
