22
Coordinates from ORCA-job NEB_product E -45.388021375430
  C           0.29658469360878     -0.31892161198985      1.05060064786477
  C           0.98057333124149      0.76374897925126      0.19318247244471
  O           1.20944246502766     -1.03702965657240      1.82951832210718
  H          -0.24497535582349     -1.00417755150087      0.36936784915630
  O           0.19812898229305      1.27140151413891     -0.77393711970890
  C          -0.71476099151409      0.39518182618605      1.98391876453407
  C          -0.00086664145841      0.94572627850271      3.18872775484804
  C           0.10496167738882      2.23680088758756      3.43273190100580
  O           2.09881407132286      1.14122826710768      0.35676287369131
  C          -1.84653566318358     -0.54397326951201      2.40469207590736
  H          -1.18578967432161      1.22238352379324      1.43960220010487
  H           0.45164131210018      0.20680433318811      3.83039681351835
  H           0.63753712364148      2.60264069155296      4.29234887875977
  H          -0.32997395856888      2.98191320309908      2.78657484713009
  C           2.04393469236945     -1.90301748782359      1.09349394311980
  H           2.64567419265067     -2.43002042722981      1.82996710350193
  H           2.69965097098367     -1.35128459099553      0.41510553298373
  H           1.44939613573313     -2.62587270818057      0.52064199740997
  H          -0.67255633156595      0.85315736553708     -0.82985483502985
  Cl         -1.26006469460909     -2.00400805477310      3.20289478687096
  Cl         -2.94608518247932      0.31572740279414      3.51005386615610
  Cl         -2.79943115483682     -1.02820891416102      0.96970932362365
