21
Coordinates from ORCA-job NEB_reactant E -52.031868196710
  C           1.59841912843626      0.24130379922656     -0.51042002682226
  C           2.54850150812039     -0.00182584132119     -1.43491527171052
  C           1.02027995681620      1.58219778458311     -0.38170962900280
  H           1.24792710891252     -0.53627793843341      0.14669480034042
  O           3.13437215959717     -1.19402276437887     -1.62955700157618
  C           2.06246491196724     -0.28992804024837     -4.56391089727442
  C           3.35733681531153     -0.11759473405652     -4.35062147531510
  C           3.91303238177275      0.70340923817736     -3.22778913271923
  O           2.96410489160932      0.99686734831719     -2.21634518761933
  C           1.46445506266881     -1.12751198266579     -5.63250997762922
  H           1.31902862868396      0.18513339443519     -3.93784252444735
  H           4.09905403205304     -0.57571578565961     -4.98692758549344
  H           4.23047123559981      1.68291325964009     -3.59898430095341
  H           4.77875918271627      0.19164614570088     -2.79261578292093
  Br          0.15278631335346      2.18241346812587     -2.06430502019182
  Br         -0.31871457842608      1.64277849650484      1.01912463691302
  Br          2.38798552786164      2.95681395685559      0.03243776304994
  H           2.77044891873828     -1.86456705341982     -1.03993331478277
  Cl          0.53645711785469     -2.45241447920471     -4.86149305438512
  Cl          0.32850208555407     -0.14374527660632     -6.59961244222710
  Cl          2.65002761079868     -1.85127299557205     -6.72536457523236
