19
Coordinates from ORCA-job NEB E -43.062029067420
  C           0.10665804036090      0.72610905411784      0.84299935686394
  C          -0.79626369137478     -0.32697169825295      1.32976743618338
  C          -0.55781042135867      2.00026405834951      0.75896382152245
  H           1.01232363432476      0.82142340936405      1.44572598828426
  C          -0.31280240415480     -1.23816696241986      2.29094956125517
  C           0.52246700997200      0.34157928592306     -0.73546178149597
  C          -0.46219880121240     -0.56772728835199     -1.31868881623446
  C          -1.80285488539748     -0.28863333871118     -0.95457225241852
  O          -1.84218778517493     -0.60317450278483      0.63596706816771
  C           1.94516805864885     -0.19967908536650     -0.77674587109058
  H           0.51006764733876      1.32050283094635     -1.22648581862851
  H          -0.17851543957215     -1.60753823713058     -1.40606064122871
  H          -2.56806240557596     -0.96324174406239     -1.31861856252726
  H          -2.11132321097048      0.75476605907601     -0.99404121653902
  N          -1.09595762363819      3.00579203619582      0.69449937121554
  N           0.04923024999980     -1.92226158783869      3.14126449117386
  Cl          2.39536330368116     -0.55481726298356     -2.45926411033437
  Cl          3.10393032851940      0.99663322089901     -0.13880947652028
  Cl          2.08276839558419     -1.69485824696911      0.18861145235136
