19
Coordinates from ORCA-job NEB_product E -43.098548099620
  C           2.92907345478970     -0.34949567429488     -1.51872603515109
  C           2.42022945457468     -1.61713464559856     -0.81089952388234
  C           1.90644058527302      0.66400714527411     -1.37392521325216
  H           3.84435903069016      0.01176916865200     -1.03388483634433
  C           3.24887282529479     -1.95173525446270      0.33521270289529
  C           3.20545817782648     -0.57506766917290     -3.02969121116810
  C           2.02400939658472     -1.19435918561833     -3.72789075009727
  C           1.15371441401665     -0.48465479114471     -4.42017000151768
  O           1.43037523390353     -2.21908420173568     -1.11743278889335
  C           4.46328512889977     -1.42541845269781     -3.20989780116305
  H           3.41097781083468      0.40568602357464     -3.47513287468128
  H           1.90518432361704     -2.26067312526979     -3.60921833805895
  H           0.30309823646383     -0.94614835580664     -4.88868571175312
  H           1.24840336493148      0.58232374241022     -4.53889173337100
  N           1.10488595455397      1.46718962394197     -1.25460391335245
  N           3.92195086952894     -2.19175362486081      1.22845497289770
  Cl          4.71863884677225     -1.74858809795648     -4.93763580409116
  Cl          5.90132854376389     -0.57510935404405     -2.57815418219148
  Cl          4.32041434768043     -2.98305327118962     -2.34782695682420
