19
Coordinates from ORCA-job NEB_reactant E -43.104471254570
  C           2.22823397161184     -0.16773270478349     -0.45831667355290
  C           1.58737963487957     -1.34328120164380     -0.65858903484548
  C           2.56736436891209      0.79635012837594     -1.41440566777385
  H           2.49985776233844      0.09289520804853      0.55638083027852
  C           1.31823276885140     -2.12565277981954      0.50651341889505
  C           3.62272112944293     -0.74193106051019     -4.06715436268463
  C           2.86840578905666     -1.61264368488237     -3.41706920349741
  C           1.43688596696513     -1.36456233257621     -3.04439545952137
  O           1.12631362872825     -1.91934296635763     -1.77839020164708
  C           5.04070944042489     -0.95444234759117     -4.45440987008042
  H           3.24318954107358      0.23065248934721     -4.34932395550062
  H           3.25152598181456     -2.57999529682808     -3.12197974628854
  H           0.78327229217693     -1.90832508860859     -3.73575734920680
  H           1.18926363409367     -0.29928382529268     -3.08389732981574
  N           2.85226447007216      1.63016005017798     -2.15158086889088
  N           1.12044784320723     -2.72652755954702      1.45979726145319
  Cl          5.21442625459805     -0.71337497665340     -6.21615831395693
  Cl          6.05070786911795      0.26156572748821     -3.61581473977390
  Cl          5.65879765263469     -2.56202777834371     -4.05274873359019
