16
Coordinates from ORCA-job NEB_reactant E -30.936363261960
  C           1.38697533306971     -0.21398585848963     -0.07699585902033
  C           1.29320433593842     -1.52572839092154      0.20925744711843
  O           0.76636757966466      0.41763846566389     -1.11616672408461
  H           2.01377364178493      0.38889751844471      0.56650747861897
  C           2.02137672507833     -1.96569841090551      1.34728483844564
  C           1.00327945971064     -3.11309724956139     -3.75072928641623
  C           0.98514109782807     -2.24546684075728     -2.75657449112845
  C          -0.01936021236364     -2.30057683546591     -1.64346961495147
  O           0.58981271736020     -2.53152992306467     -0.38713275360950
  Br          2.26198223076482     -3.02324534340440     -5.15674732798045
  H           0.30256120615329     -3.92560839619683     -3.85932464253068
  H           1.71790164761645     -1.45370221981456     -2.69799290926988
  H          -0.69696961673369     -3.14755935738291     -1.77745075359400
  H          -0.59819316145326     -1.37020719657887     -1.62834594696263
  H           1.04134952908265      1.33849605272636     -1.15910382765402
  N           2.60899748649842     -2.30182601429146      2.27158437301921
