16
Coordinates from ORCA-job NEB_product E -30.932990852380
  C           1.19839337899648     -0.43802330077332     -1.09167857452809
  C           0.88708980313970     -1.10528492752351      0.24729099098134
  O           2.45079283541774      0.16845568748101     -1.00406500731576
  H           0.39948314273168      0.29051083497869     -1.30854921720360
  C           2.08463014209394     -1.56625857784406      0.92422505256862
  C           1.15205622539297     -1.56442106364085     -2.14395985245277
  C          -0.16985613955930     -2.23733156273836     -2.22254222092314
  C          -0.32538461921365     -3.54373592831667     -2.10850842009737
  O          -0.22471122461516     -1.28292362356790      0.66443825895226
  Br          1.57051608923393     -0.73472407699388     -3.90578861580530
  H           1.96621571128138     -2.27217339178816     -1.96795239153618
  H          -1.01490740648441     -1.58358811158320     -2.38999293040906
  H           0.50969061654099     -4.20641521731487     -1.94780371752248
  H          -1.29705368363106     -4.00078494245105     -2.16560531069551
  H           2.70227427848555      0.52069107449532     -1.87043588492102
  N           3.02577085018922     -1.96869287241919      1.43442784090804
