19
Coordinates from ORCA-job NEB_product E -40.141347084730
  C           1.57136980425704     -0.80626220085724      1.98842747674772
  C           1.44805695010641      0.60313635456506      1.46288287835572
  C           1.31987009388002     -1.79495192669431      0.86358546842018
  H           2.59741748171421     -0.95965416030651      2.34609085743917
  Cl          2.39210033194999      1.73839032414281      2.42197230140550
  C           0.68767890595487     -0.92409770607109      3.28801758355549
  C          -0.71733260645923     -1.39832954657410      3.03668903779681
  C          -1.77247501843599     -0.60625049734015      3.09059964291178
  O           0.79547313334458      0.98141515304201      0.55022926771540
  N           1.42053502625303     -1.73057144634335      4.24627649375817
  H           0.64297603335410      0.08973588019057      3.70344768604684
  H          -0.83677624468715     -2.46260772826670      2.87806206812124
  H          -1.67953419318986      0.45355859752590      3.26298719015018
  H          -2.76914045315649     -0.98329499155437      2.94394952394525
  Br         -0.38974917960942     -1.63436082331096     -0.03084965541189
  Br          2.71516916292547     -1.53111578663090     -0.49926113827193
  Br          1.49282105792993     -3.63080518907823      1.47862462815711
  H           1.34412714462683     -2.72147891379889      4.04363470991217
  H           1.07511256924167     -1.57485539263954      5.18423397924511
