21
Coordinates from ORCA-job NEB_product E -43.954830629170
  C           3.10878065869073     -1.95535433226893     -0.47241523582627
  C           1.88686290081881     -2.58765502637646      0.21605553945712
  Cl          2.76593366597497     -0.18933417525223     -0.55039171181814
  H           4.00150154833885     -2.06983108188216      0.14880688053971
  O           1.73635949828634     -2.40467469547913      1.51774973734395
  C           3.31358968739096     -2.56169077949594     -1.87073151081842
  C           2.61601286151238     -1.77441339116976     -2.95109673105206
  C           1.44318377031541     -2.12117002516678     -3.44363629020990
  O           1.08058841330226     -3.22636626461089     -0.40109984153748
  C           4.78798487663573     -2.71903554704296     -2.20426976823332
  H           2.86767133274757     -3.56612146957158     -1.84576567946608
  H           3.13195915338786     -0.88899715791118     -3.29872915894080
  H           0.91382536187711     -2.98862545018434     -3.08727173531071
  H           0.96229926367508     -1.53377235639070     -4.20590408935228
  C           2.68632568976225     -1.74229209110595      2.33763276294294
  H           2.23554776348126     -1.71712138409079      3.32801843419427
  H           2.87528514664760     -0.72326180160798      1.99722599073056
  H           3.62347700462219     -2.30240505387849      2.38555960204887
  Br          4.98671059258719     -3.48023067287873     -3.98952217030045
  Br          5.74852005544159     -1.02728320674945     -2.14917761884567
  Br          5.66128075450388     -3.94066403688559     -0.94153740554585
