20
Coordinates from ORCA-job NEB E -41.339919651030
  C           0.25200465092448     -0.12150667560515     -1.00837398714091
  C          -0.96325357164045      0.29359832914204     -0.42267998498716
  C           0.38802242000270     -1.58783247841820     -1.33706180518405
  H           0.64415884736023      0.52819356002907     -1.78816041036180
  C          -1.37468352480899      1.74926988952434     -0.56010553665421
  C           1.38751187371257      0.18229002828374      0.45358698244686
  C           0.82406529605518     -0.58903572537920      1.47501566363612
  C          -0.49432992373938     -0.24126264862849      1.90112410211809
  O          -1.43016641117974     -0.35979705285914      0.60513086931505
  Br          3.16278335456874     -0.26739851973018     -0.11471383044503
  H           1.31166866391029      1.26190016589469      0.51435509288178
  H           1.16556165985375     -1.60486169512801      1.60945544688223
  H          -0.64509118521795      0.79755504930371      2.18638545607336
  H          -0.96071210692600     -0.92776893014084      2.59825320206162
  H          -0.10151772663187     -2.19761466327132     -0.58225867623646
  H           1.42738650552686     -1.88861246257657     -1.43522788489159
  H          -0.10192697619731     -1.76467785986389     -2.29335046039238
  F          -2.66030004404415      1.94851516491833     -0.27285774179484
  F          -0.67323312977657      2.57094362992302      0.26885456232826
  F          -1.15794867175238      2.21810289458204     -1.79737105965495
