20
Coordinates from ORCA-job NEB_reactant E -41.368958780120
  C           0.92652723479547     -0.03435791513328      0.14228843597540
  C           1.84997210430665      0.50740184811519      0.93616330054046
  C           0.24724797272045     -1.32652636800794      0.42310767464212
  H           0.62736335197083      0.49082897378353     -0.75127769668289
  C           2.46262957435120      1.84971781770194      0.58861303226494
  C           3.19560838631265      1.81509439930432      4.01826643345233
  C           4.01685579220634      1.02629789509545      3.35009456919870
  C           3.54979002511166     -0.13271210502992      2.51611577490655
  O           2.18191906222449     -0.06944876424568      2.13211509605138
  Br          3.80481593401152      3.23941785845222      5.08909389877230
  H           2.12189196347765      1.71739411181703      4.00089102864548
  H           5.08752480378449      1.16058508204977      3.39197216059092
  H           3.62238249131957     -1.04886161290735      3.11648517225798
  H           4.19976024854890     -0.25247534747098      1.64251373582210
  H           0.67794004799489     -1.80471693592406      1.29731011735206
  H           0.33373461718129     -1.98490597800153     -0.43952033713986
  H          -0.81304087305617     -1.15294764207593      0.60092719458625
  F           2.02388048576833      2.30955996368574     -0.59020761774414
  F           2.16559879949208      2.79541536278637      1.49557184280198
  F           3.80609797747772      1.82923935600512      0.49607618370594
