14
Coordinates from ORCA-job NEB E -29.408901776070
  C           0.99301401093189      0.21747167409416     -1.06313552029585
  C           0.13664700345819      1.26809054074432     -0.76969025415541
  I           0.40645120198489     -1.06940615266301     -2.64794702598780
  H           2.06095197786343      0.38616369528049     -1.08151354422551
  I           1.07566974060308      2.90399117950456      0.32506984724107
  C           0.68745170010624     -0.83839754868381      0.60587600862623
  C          -0.69957210967929     -0.96937582793579      0.61075727400598
  C          -1.48887116271163      0.19198929707148      0.73868370403409
  O          -1.10226935781839      1.13266852227303     -0.63398439676650
  Cl          1.65983011639359     -2.25643154207270      0.38821283341964
  H           1.16446235813575     -0.12700823008728      1.27277384522142
  H          -1.13089604004305     -1.83975666008696      0.13737076358758
  H          -1.20462195860085      0.91864122963187      1.49388910786598
  H          -2.55824748062386      0.08135982292964      0.62363735742909
