14
Coordinates from ORCA-job NEB_reactant E -29.437884349480
  C           2.27368043647937     -0.05422076501294      0.47768466498790
  C           1.17269424210852     -0.22032609784322      1.19269218731609
  I           3.56944516858480     -1.67598055648959      0.16880206060351
  H           2.55324193017582      0.86685709136389      0.00533818824023
  I          -0.09780200807469      1.48099192239858      1.47053699746751
  C           0.63052458408372     -3.90937119550218      2.71573654630893
  C           0.04008872432777     -2.91056086990249      3.34950595444996
  C           0.09973222076270     -1.48559363150408      2.89624324238412
  O           0.77911339254659     -1.40045513174062      1.65801003191698
  Cl          0.54064516813845     -5.52804258893561      3.26960608492105
  H           1.20659465871787     -3.78351552675910      1.81287763958062
  H          -0.52805056342311     -3.07111322632987      4.25328958605592
  H           0.61387587599714     -0.88115092119256      3.65827433167407
  H          -0.92328383042495     -1.09401850255023      2.78620248409310
