14
Coordinates from ORCA-job NEB_product E -29.453034511270
  C           1.87928234674920     -1.53126191862379      1.08966728350539
  C           1.14054004957127     -0.24445944651135      0.94187202025366
  I           1.39772660787201     -2.79673430843658     -0.59378498743056
  H           2.95727984533831     -1.36451372602539      1.04738268730863
  I           1.95768406569062      1.29514695428446      2.24294812575503
  C           1.51478827417391     -2.17915603037047      2.43003099011056
  C           0.04957844068666     -2.40730219466421      2.58963952944846
  C          -0.66127559338274     -1.87992090167844      3.56905585697588
  O           0.21395351467255      0.00740723635605      0.26284063340504
  Cl          2.38827517083111     -3.74635163436583      2.56948683376109
  H           1.89845173229027     -1.55280368070596      3.24195754748669
  H          -0.40699197028104     -3.04764043916029      1.84765348520579
  H          -0.21911153415411     -1.24735669126317      4.32194671900365
  H          -1.71818095005800     -2.06005321883503      3.65450327521069
