18
Coordinates from ORCA-job NEB E -29.737976405840
  C           0.57199620662322      0.64946505387468     -0.84429205807221
  C          -0.34155261008879      1.45165521966778     -0.18821567540759
  C           0.14133349220670     -0.12055484339114     -2.06222636800592
  H           1.60352604947190      0.97962684660145     -0.86804903561953
  I           0.52530310347911      3.00995450259941      1.07583192725256
  C           0.54247843336327     -0.90338653515987      0.62014392728752
  C          -0.42009479794722     -0.54512731668679      1.55555781356458
  C          -1.72012399191223     -0.28711152751374      1.09148504139141
  O          -1.52585670963750      1.13615648205344      0.07279127472123
  C           1.90723710513662     -0.96174951125788      0.99306550048074
  H           0.26196402364535     -1.59537216661798     -0.16319212841655
  H          -0.09543292667081     -0.07011205602784      2.47263552911759
  H          -2.45680102625304      0.07968101691375      1.79175269224269
  H          -2.12563751014982     -0.92727550116323      0.31767954884969
  H          -0.88414220658029     -0.47232865469252     -1.97375270904171
  H           0.80906353778630     -0.95714152588868     -2.25652924783292
  H           0.19456758497919      0.54617474802807     -2.92433627335375
  N           3.01217224254804     -1.01255423133891      1.28965024084214
