18
Coordinates from ORCA-job NEB_reactant E -29.772398839080
  C           1.52702944023755      0.22376894893631     -0.17445010163245
  C           1.33557961564496     -0.04359641197561      1.10737801378888
  C           2.41922045847202     -0.58022959483747     -1.06086002190549
  H           1.03280438682682      1.07269406325825     -0.61969357079363
  I           0.00574405965609      1.20974742893280      2.24993514157785
  C           1.85081572546767     -4.14096381640156      3.47005872751953
  C           2.10808913416063     -2.85467966046674      3.24256609448323
  C           1.19684380660299     -1.94504855587846      2.49406530946910
  O           1.98429009018855     -0.99373899722157      1.79765444572407
  C           2.72372376357091     -4.96541428163958      4.20648886553862
  H           0.95127625835578     -4.62153303319193      3.10632467715411
  H           3.01467074984118     -2.39385112985886      3.60943006578229
  H           0.54173204100900     -1.41877285931742      3.21085277360319
  H           0.55634648477292     -2.50025291169854      1.79425733071621
  H           2.83273113150918     -1.43213689989663     -0.52816887128317
  H           3.23893905494480      0.04131428773348     -1.41916685310860
  H           1.86205824621148     -0.92964270076549     -1.92931923176923
  N           3.42760555252743     -5.65116387571097      4.79664720513548
