16
Coordinates from ORCA-job NEB E -30.600700808220
  C           0.22715399174746      0.97571432583536      0.01184355764549
  C           0.23987463535533      0.06636817646524      1.22758379695152
  O           1.47072407635420      1.61392264420603     -0.07595542844233
  H          -0.57334603876380      1.72029578703044      0.18419807732222
  C           0.25970196783768      0.68910917920369      2.46741248632544
  C          -0.06481135294645      0.14341632204678     -1.26551411367912
  C          -0.95409484131295     -0.98803498620941     -0.96324883762191
  C          -0.27675291221939     -1.92268973615473     -0.05837380388993
  O           0.11155634811496     -1.24193376670406      1.19110196844371
  I          -0.82860844275441      1.45865466875467     -2.82354982853988
  H           0.90160140547025     -0.21915525899713     -1.63233495537533
  H          -2.00361025699808     -0.78991102719643     -0.80884628737027
  H           0.65841458081440     -2.31278694759611     -0.47987676375965
  H          -0.90259250005016     -2.75097586761164      0.27475311581326
  H           1.42593693834764      2.32133529227693     -0.73290251258762
  N           0.30885240100333      1.23667119465037      3.48370952876440
