14
Coordinates from ORCA-job NEB_product E -27.254206785550
  C           1.63755864312866     -2.08208906354423     -0.24954580611143
  C           1.10780554274568     -0.85048719221784      0.44103144084521
  F           1.34681840196396     -2.00406804068218     -1.58665110090577
  H           2.73300601698818     -2.10644109353718     -0.16030951237728
  F           1.56559728218446     -0.83877253843827      1.72891112071917
  C           1.00744688342752     -3.34512290792781      0.36290250168633
  C          -0.49015201214427     -3.25236214086329      0.35718226405093
  C          -1.23246042168814     -3.28229884931696      1.44655611220024
  O           0.41105602215306      0.01074128697628      0.05489215304473
  H           1.33104370669529     -4.19773968625044     -0.23943702259807
  H           1.38333196820064     -3.46347214109035      1.37996728927497
  H          -0.93775768648255     -3.13914766651547     -0.62050900750681
  H          -0.79900184128260     -3.38815842027381      2.42793962497059
  H          -2.30479250588988     -3.20798154631842      1.40366994270720
