22
Coordinates from ORCA-job NEB_reactant E -33.242451126740
  C           1.44916813380189      0.31120051990500     -0.09289011274996
  C           1.60224342681185      0.17137912904018     -1.40898516003868
  O           1.84411778572260      1.40491749155521      0.66676091308067
  H           0.98602199747571     -0.49621222462139      0.45544555941270
  C           1.13823472968413     -1.07472733496975     -2.10925448174402
  C           4.46692983193699      3.38739086217837     -3.11861713248440
  C           3.19555744916978      3.01946941223288     -3.03094653377679
  C           2.64843252150491      2.28653249586949     -1.84817015463845
  O           2.15413997483574      1.03671105055422     -2.30864594855127
  O           5.08691023336876      4.05247092532651     -4.12090250844548
  H           5.17124539517586      3.19127659043339     -2.32096707932476
  H           2.48779219732701      3.19841611723187     -3.82456760378188
  H           1.82804258643366      2.85734545561592     -1.39325971673027
  H           3.42562663902773      2.13318796284554     -1.09294534366814
  H           1.54615165734879      1.27543005245926      1.57035689061877
  H           1.97507257832703     -1.52678102045431     -2.63782133073633
  H           0.37935278477777     -0.81971956623059     -2.84670933772785
  H           0.72773832604494     -1.79019075304703     -1.40488501659448
  C           4.31819500488348      4.38086529155497     -5.25414583959647
  H           4.99262304710835      4.89088042984293     -5.93968869589666
  H           3.49061168745415      5.04716117010579     -4.99083897750082
  H           3.91749201177887      3.48259594257156     -5.73382238912543
