22
Coordinates from ORCA-job NEB_product E -33.253166917510
  C           3.01996221571885      1.00194514946650     -1.42804088045402
  C           1.62855855062409      0.45795459859113     -1.73783415538572
  O           3.08748889899197      1.40926554294297     -0.09497434891571
  H           3.78099945564391      0.23393771836800     -1.60830507520047
  C           1.49425095678574     -0.34423134677459     -2.99036464936187
  C           3.33951138009169      2.20316979464976     -2.37388832316181
  C           2.17433771984741      3.15199276601916     -2.41556590658802
  C           2.04799690791829      4.19017111051473     -1.61133772058445
  O           0.72383330926357      0.69563206688374     -0.97240853461491
  O           3.66660164405488      1.68132881135550     -3.64648316120593
  H           4.21629658842718      2.70685818437944     -1.93626604634655
  H           1.40922818421363      2.90051994771095     -3.13826538822830
  H           1.17990468849916      4.82585043196143     -1.63589655819261
  H           2.80496288003909      4.43280803395548     -0.88388331329060
  H           2.16837964797540      1.52593281910939      0.20408867362873
  H           2.07832535523204      0.11197244635234     -3.78526791965394
  H           0.44834909145922     -0.43979226281226     -3.27049004862189
  H           1.90155543315748     -1.33740154762312     -2.80556909492942
  C           4.25109793824168      2.63475489406455     -4.50147860998570
  H           5.18580437742824      3.02051931976741     -4.07804412617095
  H           3.57506674441657      3.47658247468512     -4.68673532195574
  H           4.45988803196992      2.12022904643236     -5.43728949078010
