18
Coordinates from ORCA-job NEB E -40.712526668850
  C           0.07155666150920     -0.43243301650611     -1.05312824913963
  C          -1.30023269908736     -0.19648749845189     -0.86027596758767
  C           0.60810551377925     -1.77300249149515     -0.64355244742662
  H           0.47476114543381     -0.14306921276078     -2.02282782226365
  Br         -2.10002309037373      1.09208376586686     -2.10591498797428
  C           0.67858058103165      1.03773284289417      0.15096609404919
  C           0.00356475153268      0.78653265709837      1.35466261382942
  C          -1.40977713115242      0.84314949531085      1.35983575999389
  O          -1.87224848575034     -0.33332254577760      0.25270875108476
  C           2.10217641519508      1.07177594752933      0.18290551753037
  H           0.27806674292750      1.81002259211948     -0.50520636802725
  H           0.51589232769269      0.25834417506595      2.14445805062091
  H          -1.88450019368229      1.69366944216059      0.87705999313027
  H          -1.91576738709892      0.51539348116236      2.25804570084422
  Br         -0.18041944513959     -3.10149016079866     -1.91030626891185
  Br          2.54379787637542     -1.90905849706137     -0.86177332387106
  Br          0.14630887778858     -2.38065725690533      1.13204791828933
  N           3.24015753901879      1.16081628054894      0.25029503582966
