18
Coordinates from ORCA-job NEB_reactant E -40.752806864810
  C           2.20900261843895     -0.30017485681522      0.37599875883031
  C           2.32325255012720      0.48196821825397      1.45793187266744
  C           0.88851547671021     -0.81403206375995     -0.03341137232107
  H           3.07424811128745     -0.57798362095573     -0.20171954891974
  Br          4.04224947315042      1.14699919068898      1.94895845976717
  C           2.13220513682573      4.15721323171822      2.77777158178610
  C           1.32470872317587      3.16069724910424      2.42350779992712
  C           1.27680954252625      1.84303237353163      3.13093376280389
  O           1.27125164118171      0.75609119033840      2.21477438772947
  C           2.14634462499598      5.39340548902210      2.09965206439786
  H           2.82029479354425      4.07390032422479      3.60970205935092
  H           0.65163356499612      3.25771726877463      1.58120203761024
  H           0.32568915524840      1.73748131718534      3.66351094568726
  H           2.10231920483621      1.73652925004227      3.84478711760145
  Br         -0.40850222019706      0.65038099729797     -0.29244937824680
  Br          1.00225103936484     -1.80921376267877     -1.69665475680898
  Br          0.11157432656666     -2.00672074762651      1.34532701306368
  N           2.16895223722080      6.40210895165363      1.55707719507367
