19
Coordinates from ORCA-job NEB_product E -44.186671978560
  C           2.69313805160877     -1.08176808330855     -0.69743301787339
  C           1.44312918407951     -1.03382864047797      0.19271456093644
  N           2.70182084042390      0.13322482422243     -1.58929298656911
  H           3.58960901766465     -1.00772212930771     -0.06763626717310
  C           1.47670871727746     -2.09758553163314      1.18515748273432
  C           2.68699885027166     -2.39661246713523     -1.49080321498973
  C           1.40512894339108     -2.66189274856566     -2.22937061045146
  C           0.57325451754785     -3.62853469699039     -1.89089188193306
  O           0.54832398990467     -0.25255046747476      0.07915865233857
  N           3.85703303941931     -2.39641430268355     -2.45333994275223
  H           2.88836903885389     -3.22339937142167     -0.79568117940898
  H           1.20510513184944     -2.00794461006178     -3.06522310769056
  H           0.76497036940338     -4.29320850408950     -1.06335816404878
  H          -0.34020778836300     -3.79236532382465     -2.43355350276323
  O           2.87163690447965      1.17594911726504     -1.02654181093975
  O           2.53406529445726     -0.04478667842297     -2.76409683835955
  N           1.51809081357363     -2.94439536326202      1.95212528720433
  O           4.80792087214573     -1.73311659099596     -2.13013072250508
  O           3.75220421201116     -3.09284843183195     -3.41900273575564
