19
Coordinates from ORCA-job NEB_reactant E -44.197023678920
  C           1.89742204688216     -0.25741376447953     -0.36195010473869
  C           1.45004192020794     -1.26329503005778      0.42808612148026
  N           1.82647123688555     -0.14596870036292     -1.77610087948362
  H           2.39365904083866      0.58158143993681      0.10459071628495
  C           1.55377293048866     -1.00944461744236      1.83902810551415
  C           2.78622924192924     -3.07658124437561     -2.88487763196201
  C           2.43822339844354     -3.16425984824161     -1.60845800242700
  C           1.03562228120086     -3.06937018844313     -1.10241997769325
  O           0.96852810253473     -2.47752354251814      0.18532024208349
  N           4.16439963846562     -3.22270069066336     -3.28100130646719
  H           2.10774743870767     -2.90743591945619     -3.70724689469748
  H           3.21103974329070     -3.32773021336732     -0.86398718231685
  H           0.63698565539021     -4.07819100166209     -0.94560190657270
  H           0.39766423738681     -2.53574139509929     -1.81839716692550
  O           2.72477967099653      0.45340062456058     -2.32273102895701
  O           0.85898408342784     -0.62056806956537     -2.34672913175168
  N           1.63175736054780     -0.79209178192976      2.95795477619475
  O           4.99546942594550     -3.32621803042266     -2.40698386561887
  O           4.38490254642999     -3.23684802641027     -4.46809488194574
