19
Coordinates from ORCA-job NEB E -48.515196448360
  C          -0.24471877947303      1.71834662173360      0.63941966910525
  C          -1.59784684547276      1.42727585046279      0.36696532863725
  N           0.65637907957536      1.79496952770825     -0.40219878960368
  H          -0.02004068902879      2.36679892777720      1.47242565297797
  Cl         -2.66014663765070      2.58964135646589     -0.33313975920729
  C           0.29862828564822     -1.17637921302246     -0.60454828302633
  C          -0.03392711145145     -0.89789862915625      0.65787506789580
  C          -1.46512017564415     -0.80945811179058      1.09523016336529
  O          -2.18969637738852      0.30860973038987      0.53409633547064
  C           1.68915385823113     -1.45363822143376     -1.05265112802866
  H          -0.44941299700103     -1.30892689044666     -1.37227624219557
  H           0.72446687039938     -0.78717652552724      1.41604306283644
  H          -1.53455048384548     -0.72202174912183      2.18285712691658
  H          -2.03988997193862     -1.67855055641662      0.76382891881579
  O           1.72368551366913      2.35797323619992     -0.22235567436999
  O           0.36218424105005      1.18831589680208     -1.43825485507376
  Cl          1.92912464527677     -3.23412960131702     -0.88693113949926
  Cl          1.93211414904779     -1.03182979301169     -2.75113473963491
  Cl          2.91961342599671     -0.65192185629548     -0.06525071538156
