19
Coordinates from ORCA-job NEB_reactant E -48.574939813350
  C           2.23002884170147     -0.52330570423443     -0.00526001342717
  C           1.44159289260634     -0.98287329393020      0.99103222908949
  N           2.41170696783149     -1.07883643142867     -1.29076380207646
  H           2.79368520510979      0.38350236577961      0.14854922878223
  Cl          1.25201796348236      0.04606508931847      2.36622004862623
  C           3.32212489253402     -4.01083802137914     -0.44465879200328
  C           2.59943239279661     -3.60194844045929      0.58645597262685
  C           1.13276500827439     -3.31473476091931      0.50118134159741
  O           0.78903393562289     -2.10784091546250      1.18823316734453
  C           4.77616958931897     -4.31464752093260     -0.41328511028547
  H           2.87253074651327     -4.15346583979946     -1.41851539978194
  H           3.04734663887565     -3.44746457569136      1.55868561918456
  H           0.56454831476210     -4.08119118174331      1.03699560216470
  H           0.80313722892843     -3.26849656772875     -0.54264836366002
  O           3.42602117844307     -0.77081997315728     -1.87954437301109
  O           1.53900823872569     -1.79479163975816     -1.75408106266030
  Cl          5.01808032206342     -6.03169936129464     -0.85071183327833
  Cl          5.60963503725411     -3.29183994935386     -1.62208165912807
  Cl          5.52333460515591     -4.03697327782511      1.16539719989613
