16
Coordinates from ORCA-job NEB_product E -29.378783852760
  C           2.99359884175211     -0.95044665468700      1.38666182270302
  C           1.57959663792712     -0.80993848444560      0.94894257231858
  Br          4.13427656226083     -0.15144363191432      0.01701929223675
  H           3.17866872673863     -0.39602406693436      2.30965434423402
  Br          0.35434873122236     -1.17812937072519      2.45187312165666
  C           3.36132043545551     -2.43776919547358      1.62437049155111
  C           3.12468434522260     -3.24344411704894      0.37280069364569
  C           2.17998456829425     -4.15733804661316      0.25897665296351
  O           1.12926393654794     -0.54789512522128     -0.10538475439832
  N           4.71710010366661     -2.48329596676276      2.13142848166080
  H           2.70371810505842     -2.80108880890453      2.42491561791828
  H           3.80063143790519     -3.03472448182842     -0.44653542143577
  H           1.50070803031620     -4.37833138757363      1.06693272590325
  H           2.04431029904277     -4.72077971250854     -0.64771543758785
  H           5.38334516979492     -2.22824280118563      1.40848112516896
  H           4.94544406879452     -3.41250814817305      2.46107867146132
