16
Coordinates from ORCA-job NEB_reactant E -29.370102097170
  C           2.24675098481810     -0.30901516318108      0.58109508575476
  C           1.43212395767127     -1.19531945421390      1.14139907367416
  Br          3.28069905371005     -0.56300445011801     -0.98278364134431
  H           2.35577860757162      0.67736740263605      0.99578475657654
  Br          0.48262416992651     -0.59334547590918      2.69675892600261
  C           3.62991428979384     -3.28933413575758      1.98756281547147
  C           3.33788011225374     -3.38518909840871      0.69032342439275
  C           1.93705598092499     -3.33139041515027      0.16193053992036
  O           1.08260840187157     -2.45149503432616      0.90329622187371
  N           4.89937256183312     -3.20094563392789      2.50476066426037
  H           2.84408991999949     -3.19120402714697      2.72618758338592
  H           4.12055043889052     -3.47403806466920     -0.04700315280688
  H           1.42781355673037     -4.29707804101661      0.26092468166085
  H           1.93517994630252     -3.05129696135451     -0.89627083511357
  H           5.64510687729822     -3.46412230081135      1.87908713587588
  H           5.02365114040408     -3.50698914664463      3.45524672041537
