18
Coordinates from ORCA-job NEB E -42.144593968800
  C          -0.23048359785765     -0.34381350569487     -1.58103878735018
  C          -1.04041628508638     -0.48743431528147     -0.43355040888290
  O          -0.07854717775278     -1.33310701292182     -2.47615857822459
  H          -0.40669002869591      0.63475940325884     -2.05892453785912
  C          -1.06725766534735     -1.69181649172782      0.43914402068288
  C           1.09793752105046      0.29370144796550     -0.52747885204513
  C           0.74147568837496      1.13784058875175      0.41830357767325
  C          -0.65747020366031      1.34784323954199      0.91346598894276
  O          -1.62032553501122      0.62373545547420     -0.01433981029400
  Br          3.21374048345032      2.23250487287651      3.27381398245035
  H           2.14048560951886      0.21617313205176     -0.78890759808375
  H           1.50425413014230      1.63577720725783      1.01915224841221
  H          -0.90657091898225      2.39924065035475      0.91880797055133
  H          -0.78772937542076      0.91145193892429      1.90416446590468
  H           0.62051546684970     -1.11783128901924     -3.11028256956567
  F           0.50457575970294     -2.26274101190213      0.30851912569374
  F          -1.34372575915421     -1.41444210773605      1.69089035493811
  F          -1.68376811212069     -2.78184220217402      0.10441940705603
