20
Coordinates from ORCA-job NEB E -42.475247914470
  C           0.85741734245701     -0.12462537364277      0.50609071076244
  C           0.14254217894982     -1.64516081840826     -1.33861643645012
  C           0.11940403776405     -0.58926460630451      1.72318711698022
  H           0.52659724359588     -0.91228562328229     -0.36443783221187
  N           0.59444481170729     -2.85167422927550     -1.09780560632349
  C           0.56104540371061      1.26680796020690     -0.01188379469564
  C          -0.87125645993684      1.75388648981539      0.02478297262530
  C          -1.69240930979896      1.64163223909725     -1.00211564475544
  O          -0.42658799825300     -1.13150533995224     -2.23709043062013
  C           1.38718570129164      2.14308105837423      0.79963787710213
  H           0.94788735710511      1.31847575186305     -1.03795302295481
  H          -1.20169107519814      2.18790556094160      0.95781338481811
  H          -1.38590230326052      1.21215770077699     -1.94174069673043
  H          -2.71482267067001      1.97243166668277     -0.93718660452995
  F           0.94451335425410     -0.57496306842173      2.78728479614816
  F          -0.99977461910259      0.05008058849362      2.14521990668244
  F          -0.25561299679060     -1.89300992442526      1.57474437392268
  H           0.45671284697578     -3.58289231909575     -1.78406547103611
  H           0.99541042452169     -3.09150320442126     -0.20474058432042
  N           2.01489673067769      2.85042549097779      1.43887498558695
