17
Coordinates from ORCA-job NEB_reactant E -40.002227858720
  C           2.30395670986684     -0.47142471392566     -0.12420362490667
  C           1.70057570025701     -1.59904434780119     -0.50111502316947
  Cl          2.70609955343129      0.87993117729224     -1.10931958526060
  H           2.60545867550728     -0.32857099623578      0.90069082609913
  C           1.40966721877765     -2.70647856090035      0.46860971404639
  C           3.75731599095301     -1.91567870176526     -3.00628541111423
  C           2.77087769034103     -1.12267532423343     -3.37694969242033
  C           1.36267956704266     -1.24778757010446     -2.87145777476743
  O           1.23000307554733     -2.02570400394057     -1.69719756944388
  I           5.71888252526469     -1.70857439122592     -3.72239909463392
  H           3.64635497438605     -2.72924328507464     -2.30967393581136
  H           2.92082008095457     -0.32713946448881     -4.09145292107509
  H           0.75627280291523     -1.78720896937057     -3.60884076416611
  H           0.92203861250075     -0.25606834981437     -2.72684916836830
  Br          1.91861089648983     -2.39400429628693      2.29631660834973
  Br         -0.51052802887742     -3.07278983076542      0.42559682583649
  Br          2.33681395464222     -4.31343837135889     -0.14966940919434
