17
Coordinates from ORCA-job NEB_product E -40.005109576230
  C           3.04270472596622     -1.31943512168932     -0.78879139337307
  C           1.63849090158088     -1.67785433702039     -0.36330112655996
  Cl          3.18491404630488      0.38861311336895     -0.24247528972922
  H           3.80626999218743     -1.88662880281305     -0.25098947057101
  C           1.54590800938703     -2.54984830991289      0.88002768090752
  C           3.21438874258047     -1.46701947235356     -2.29148502141594
  C           2.26471621189974     -0.66052649969014     -3.09769207535712
  C           1.55760266249714     -1.16273147378594     -4.09441641365257
  O           0.64414740692972     -1.34991898011544     -0.93945357984276
  I           5.26924050695974     -0.91725377972623     -2.80260768954739
  H           3.14170523294484     -2.52744517508804     -2.54571001256827
  H           2.19563676096147      0.38496552281536     -2.83363127348689
  H           1.62257129984248     -2.20174485171324     -4.37454050519619
  H           0.87908535701938     -0.55282403604132     -4.66324830819423
  Br          2.63184175223139     -1.91646548467559      2.34962375861700
  Br         -0.29067478510264     -2.72587371006614      1.43478456303443
  Br          2.21745117580982     -4.28930860149304      0.26900615693566
