21
Coordinates from ORCA-job NEB_reactant E -33.030956420380
  C           1.83959637468985     -0.21606991769292      0.46153613895657
  C           1.32659067276305     -0.81010583383369      1.54296600789930
  N           2.56484140978585     -0.74929883731789     -0.60417498274347
  H           1.61519785463855      0.83613252495572      0.35500739364547
  C           0.54288455550737      0.00898439591495      2.53659909864011
  C           4.15530656220180     -2.67523805914624      1.79871628017396
  C           3.29626824455668     -3.25939899834835      0.96433519033620
  C           1.80111635711620     -3.13555099008441      1.09189269929070
  O           1.37521651063050     -2.12290902101474      1.97538810642672
  N           5.52139128503993     -2.85769171776163      1.79496039968578
  H           3.79110539329864     -2.03795227371575      2.59226817772245
  H           3.63898508126817     -3.92157551474818      0.18059566461146
  H           1.39318771830500     -4.05973380846643      1.52368956922658
  H           1.34306941814026     -2.99607073996129      0.10272295835618
  H           3.08925917895926     -1.58467299409684     -0.37037116745978
  H           3.14111094688291     -0.06020296967941     -1.06461093275362
  F           1.22194582785641      1.15728306445735      2.88761512100901
  H           0.39592322668144     -0.57310917640166      3.44997943212022
  H          -0.42343767037136      0.33922806926992      2.13843224709065
  H           5.90199481885421     -3.29884117980260      0.97160880505992
  H           6.07674623319531     -2.09680602252592      2.14994379270559
