21
Coordinates from ORCA-job NEB_product E -33.022825035070
  C           2.96596294631291     -0.68204465208957      1.05107642184251
  C           1.44368944079350     -0.58438788618712      1.11026218742378
  N           3.47543196238789     -0.53825635004455     -0.30018814981801
  H           3.42420285825609      0.07959587478768      1.68939885484609
  C           0.89518214466776     -0.15219665186097      2.46069280894218
  C           3.40642240896712     -2.06676672042804      1.61262545806626
  C           2.90105197173824     -3.17750960402974      0.73037330332130
  C           1.88920849141575     -3.96607380062247      1.03888844589641
  O           0.75008719891320     -0.81893083906853      0.15802805960185
  N           4.85349746468310     -2.02503198638308      1.74237576043285
  H           2.98896785347678     -2.18754182361972      2.62029349362863
  H           3.44332216916339     -3.30798733349245     -0.19666096114998
  H           1.33908799796443     -3.85256101818182      1.95908475712611
  H           1.55953387992104     -4.75333464306432      0.38308153534726
  H           2.88417771769638     -1.07384873244640     -0.93100075186600
  H           3.42807239276461      0.43076834418342     -0.59509836438835
  F          -0.45989498415310     -0.30351922707512      2.53219896806584
  H           1.11407189688883      0.91135941048713      2.61752262562878
  H           1.33856744059151     -0.74051949230759      3.27050760790686
  H           5.24983751695434     -1.73182786650912      0.85422893116947
  H           5.21111923059622     -2.94878500204762      1.96170900797615
