26
Coordinates from ORCA-job NEB E -50.570644710010
  C           0.51354375938301     -0.43825224343897     -0.10186526590619
  C          -0.63873810971196     -0.98652792959475     -0.70587176449492
  C           0.72140479627287     -0.68759138902973      1.37597067837264
  H           1.42359381508593     -0.58910029380890     -0.67984130012585
  C          -0.60941011428845     -1.32169607203575     -2.18705574182384
  C           0.09470083259727      1.39567621110873     -0.28521324623781
  C          -1.17276471123994      1.51219266245806      0.31080583171751
  C          -2.24858426111287      0.76732847787337     -0.25330045676094
  O          -1.80836887603014     -0.77662952794661     -0.17172794687904
  C           1.19285154475950      2.28754345710090      0.22562264459161
  H           0.11368451279264      1.41633005161310     -1.37469473770680
  H          -1.24137106669460      1.79399273387418      1.35146524473998
  H          -2.40687263228319      0.89076604407699     -1.32197225606618
  H          -3.17683732759935      0.78234315919455      0.30503014020679
  C           1.01891015037088     -2.16967125200090      1.59451473647006
  H          -0.17046196379221     -0.40939608568592      1.93856194110876
  H           1.57054160089760     -0.11321641935672      1.74505023898414
  H           0.17544620931313     -2.77584151487916      1.27348514461539
  H           1.20474796601984     -2.35590274019300      2.64886252343895
  H           1.89691107056997     -2.47220174644342      1.02862503388093
  F          -0.60006474067114     -0.18176834601250     -2.95085710959729
  F           0.51825174524608     -1.98725740149650     -2.51683734827596
  H          -1.47942556049566     -1.91729201594813     -2.49675149508043
  Br          0.94359505986553      4.06044178631003     -0.62327649555118
  Br          1.18791570772870      2.59816932851963      2.14486374924950
  Br          2.97680059301657      1.67756106574143     -0.27359274286982
