26
Coordinates from ORCA-job NEB_product E -50.604314281850
  C           2.61696258567391      1.39318451752573     -0.08903667161738
  C           1.45124251186555      0.76624077617849     -0.82910481357237
  C           2.70842327717682      0.83776564885713      1.34153118591442
  H           3.52220592329361      1.10536990237733     -0.63982769261740
  C           1.44475088079341      0.95684891036115     -2.36788510678631
  C           2.44409588098276      2.92835560608584     -0.25038167386186
  C           1.19981371812392      3.42411995896139      0.43478892829944
  C           0.25623915863303      4.10452593968942     -0.18835057958605
  O           0.55740145483457      0.15124746301556     -0.32293838953414
  C           3.64853027823941      3.76420091157914      0.18314459431615
  H           2.34949329733338      3.13466515270803     -1.32479381439879
  H           1.11245669718798      3.19998347128613      1.48808411174704
  H           0.31364375760056      4.34039621334833     -1.23832727149046
  H          -0.62087207141313      4.44732461028614      0.33130758174744
  C           4.09506836370785      0.29052194585750      1.65987399113984
  H           1.97777877099574      0.03201211131059      1.43889527103438
  H           2.43916269709468      1.59037153377534      2.07960536016833
  H           4.36793039637420     -0.49891685984804      0.96304680524100
  H           4.10446599344003     -0.12274178816206      2.66475792051477
  H           4.85430915402309      1.06705830511968      1.61193491828311
  F           0.66452010133925      2.01585389977538     -2.69301865774724
  F           2.67587886598410      1.22658320590434     -2.85754989018679
  H           1.04671969970674      0.06743512052044     -2.87763167995725
  Br          3.38334861102388      5.60557981193717     -0.45843353639984
  Br          3.91668314359160      3.89309131307955      2.10315168475136
  Br          5.31604685239306      3.12222231847031     -0.61814257540139
