26
Coordinates from ORCA-job NEB_reactant E -50.594856142600
  C           1.85426024521047      0.32262470588969     -0.14706075330305
  C           1.33121539886159      0.82573561781563     -1.26376506331674
  C           2.10218658877115      0.89542577657124      1.21420607586402
  H           2.19081301846167     -0.70324074621537     -0.22246741649333
  C           1.23109530262731     -0.05954523382027     -2.49456026789557
  C           2.67497036178773      4.40377728238315      0.46113004400919
  C           2.31678980169471      3.59203547639395     -0.52151273962707
  C           0.90232109423107      3.16464336520305     -0.76913041844715
  O           0.80574782417042      2.03911982600110     -1.60086413987428
  C           4.04631591201353      4.86989127366673      0.75217047215715
  H           1.93751233335207      4.80168488645435      1.14900254563078
  H           3.03726251718210      3.19185915809876     -1.22256607357800
  H           0.38975919886620      3.95047845507054     -1.33901932231888
  H           0.35205877896570      3.01815843807071      0.16957754396142
  C           3.59138802632394      0.81932653204665      1.55660804698924
  H           1.54645272763346      0.29110537436614      1.93726765012797
  H           1.76059447196579      1.92145712020766      1.31379394488515
  H           3.93662432066645     -0.21099012494921      1.53227301419312
  H           3.77092893300102      1.22052222225869      2.55075981537342
  H           4.17870521974115      1.38862389084243      0.83966700952758
  F          -0.05606082619380     -0.19924156079152     -2.89062163900303
  F           1.89069251884784      0.49731754319670     -3.53892672532480
  H           1.64451329518326     -1.06577653846639     -2.33322264918593
  Br          4.13019718300415      6.83896343778069      0.56002877185952
  Br          4.49053239371274      4.43627604140843      2.62492310818961
  Br          5.42672335991826      4.09916778051650     -0.37259083440034
