21
Coordinates from ORCA-job NEB E -29.125119717760
  C          -0.13335152870513     -0.60369422258248     -0.49455235552578
  C          -0.29676411592040      0.44145953061585     -1.43291604039126
  O           1.17734533479232     -1.03876281983447     -0.21404820093662
  H          -0.80426807023143     -1.45625083213042     -0.65145912127167
  H          -1.25583760729194      0.53041019325821     -1.94233436060351
  C          -0.50912994599779      0.14896338739144      1.10009904551475
  C          -0.24611813864292      1.54314353852054      1.02010719952808
  C           0.85977299046485      1.88504084213583      0.15245643927286
  O           0.32079451114163      1.58400005020557     -1.23511069292171
  C          -1.89077393282392     -0.26152504756451      1.56210461591849
  H           0.27909231077129     -0.40879896783018      1.60540311822632
  H          -1.10198401956372      2.20752462887722      0.96922401887373
  H           1.74426904699424      1.26270312976173      0.29621211796616
  H           1.11296096076458      2.93934049643718      0.08403150206163
  C           1.74441838405359     -1.77571646149676     -1.26974552121137
  H           2.72881271210672     -2.09007874132706     -0.92790371073215
  H           1.84453136713935     -1.16739674696458     -2.17567660850006
  H           1.13845460356196     -2.65983607821282     -1.50426344476819
  H          -2.01139920844520     -1.34132546756179      1.52589933739002
  H          -2.65816626775540      0.19768859009877      0.94262581155859
  H          -2.04265938641268      0.06311099820275      2.58984685055171
