21
Coordinates from ORCA-job NEB_product E -29.172883072890
  C           0.47074142548529     -0.18376036362979      1.73503871311235
  C           1.24796429104007      0.70220255295984      0.78485573643676
  O           1.18881944912820     -1.30959477437895      2.17303701859761
  H          -0.44907308488907     -0.49689988558324      1.20311070940148
  H           0.64459742362304      1.56138837535805      0.42557152771788
  C           0.06787523045909      0.64017305850231      2.98293953703195
  C          -0.69635836853382      1.87105927496234      2.60012515267290
  C          -0.36303838852686      3.09802394287279      2.95380279695928
  O           2.38109863031393      0.54174441135662      0.43460815348439
  C          -0.78322157864647     -0.22660983663878      3.91426271728435
  H           0.99060486909273      0.91594229513919      3.50076090780884
  H          -1.60010931718835      1.69281012074790      2.03035586731592
  H           0.52647639064321      3.29920922461412      3.52750561268425
  H          -0.96106276618914      3.95194234048686      2.68504102260641
  C           1.39926654422159     -2.29021258186372      1.18492971371379
  H           1.88851094924419     -3.12158148968110      1.68833860809174
  H           2.04158651002021     -1.92658908888397      0.37855523580622
  H           0.44572925305276     -2.63067244443780      0.75990402942192
  H          -0.24295618824642     -1.13428108651230      4.16603130721677
  H          -1.72119019405278     -0.49591603682107      3.43272412020323
  H          -1.00516108005138      0.32082199143070      4.82680151243197
