21
Coordinates from ORCA-job NEB_reactant E -29.168157899160
  C           0.92564489259046     -0.45730857008105      0.18175055003838
  C           0.68633068025044      0.67270594604521      0.84142881823303
  O           1.81683947138057     -1.40403378993333      0.60535444204543
  H           0.40123396308050     -0.65738164467170     -0.74389425900627
  H          -0.05271789375428      1.36733739655217      0.45755301316266
  C          -0.65452851718343      1.41722917737141      4.82938001030494
  C          -0.48657861769719      1.37060272022040      3.51910727052015
  C           0.67382267331188      1.98076616516041      2.78820562532597
  O           1.35023295224075      1.04596152438248      1.97309773684453
  C          -1.80578879794487      0.81321793568783      5.56012932368681
  H           0.07043761430316      1.93308206251825      5.44639102678196
  H          -1.19787460112877      0.84954253947202      2.89089093389467
  H           1.42166531424605      2.35074170616670      3.49353234182495
  H           0.31875109004299      2.82378614309370      2.17067617557973
  C           2.07677496499954     -2.43003316873644     -0.31640327251915
  H           2.76286007406923     -3.11773034372966      0.17485872942504
  H           2.54586035098033     -2.04278643935146     -1.22850624826718
  H           1.16056254374047     -2.96702935915793     -0.58994342780592
  H          -1.44614779261960      0.09014326840335      6.29132707545278
  H          -2.48520305025386      0.31275146015430      4.87509353176204
  H          -2.35407731465436      1.58383527043333      6.10167060271545
