19
Coordinates from ORCA-job NEB E -33.620465887720
  C           0.32111846375327      0.05242565702625     -1.27480561738841
  C          -1.06694862116376      0.25750543659450     -1.17716607087161
  Cl          0.86957568788437     -1.52633100234028     -1.77408832615189
  H           0.92073511674767      0.83811544277106     -1.72084760631918
  N          -1.53676705111067      1.56680750500249     -1.20945874934871
  C           0.73155511687002      0.08115648513940      0.66554336853220
  C          -0.10539555166392     -0.92006718862681      1.15692768916372
  C          -1.50503110730576     -0.74113194116391      1.01475616486458
  O          -1.81516234651750     -0.62820578745467     -0.61328201612355
  C           2.22914323776206     -0.06464739001400      0.79059551758912
  H           0.42043199544825      1.11330262257202      0.80391449294811
  H           0.28339669012511     -1.92545206957836      1.21071935256805
  H          -1.90292050253781      0.22059083593231      1.32808472100090
  H          -2.13679991267326     -1.57406759137449      1.29371767506139
  H          -2.54015051026627      1.64354031516583     -1.13947841153536
  H          -1.11887419891942      2.18665447192614     -1.88329942486177
  F           2.62319517782528     -1.37161273281108      0.87988713512972
  H           2.56950755048952      0.42400390210561      1.71311362582283
  H           2.75939076525280      0.36741302912799     -0.06483352008014
