19
Coordinates from ORCA-job NEB_product E -33.683130068860
  C           3.51627330098115      1.44090939055811      1.64280969052183
  C           2.08222002399880      1.98085698993679      1.54974486480385
  Cl          3.94622899592219      0.37245141536326      0.28034300261957
  H           4.19757484841171      2.29592554853575      1.59605701287552
  N           1.28140777212063      1.39298449003569      0.65224726764710
  C           3.66878789524902      0.73533738743385      3.00367639657376
  C           2.87569144986813     -0.54193469337010      3.03477346658980
  C           1.72355295406275     -0.66989363749967      3.66297110339145
  O           1.73315803061644      2.87173629842670      2.29128018413694
  C           5.13125309075507      0.48412758771300      3.38037137687230
  H           3.26570103591392      1.43713438302928      3.74312719183970
  H           3.31212608687920     -1.36705081338442      2.48960927787273
  H           1.27964523343704      0.14940936770609      4.20472513269934
  H           1.17553269571170     -1.59627071896745      3.65884484110399
  H           0.33006405892524      1.70854020346250      0.56644272191594
  H           1.62672646881841      0.66011981429321      0.05419265159839
  F           5.72098927183712     -0.44838619434005      2.56870512114970
  H           5.19212997868927      0.09084865970975      4.40062250788328
  H           5.72633680780221      1.39985452135773      3.29505618790481
