19
Coordinates from ORCA-job NEB_reactant E -33.649047017820
  C           1.90773398777996     -0.02849995319603      0.16714560289430
  C           1.57259160796498      1.04219530558012      0.89894595558687
  Cl          2.07502533257251     -1.66414815215595      0.71583627996110
  H           2.12335892402712      0.08596818205690     -0.88054168370675
  N           1.50531905673961      2.29653348289506      0.30140271017623
  C           4.03407972253174      0.58920182561038      4.34334561462172
  C           3.34407499524000      0.40996251176815      3.23049736967896
  C           1.85348559756726      0.28417470323866      3.17900461373654
  O           1.26436907187086      1.14955011136847      2.21735304786193
  C           5.52406091287796      0.69251889956087      4.41155951330404
  H           3.54692313875015      0.66035040805599      5.30628815176307
  H           3.85080371019352      0.34410858508231      2.27798917595698
  H           1.40330086384059      0.59357640354888      4.12578859744904
  H           1.57564430718692     -0.75727134317161      2.97905327474992
  H           0.99015546654436      2.96046136609659      0.86022062207806
  H           1.25607388640575      2.30555926701333     -0.67445404906831
  F           6.10923907272219      0.60874808688603      3.17532084485835
  H           5.94484616177719     -0.12078736972285      5.01713795228266
  H           5.82881418340734      1.65539767948471      4.84160640581529
