24
Coordinates from ORCA-job NEB E -32.765397220830
  C           0.36444428891863     -0.57269918411161     -0.07004978872405
  C          -0.83822241046948     -0.85728412293267     -0.74088695176764
  C           0.42580150291052     -0.70345538102011      1.44415709147452
  H           1.26887297621122     -0.92394642220441     -0.56013729726065
  C          -0.83284365432581     -1.25398993777742     -2.19163940697443
  C           0.34734700302135      1.31999094990885     -0.43053142133017
  C          -0.86445044435412      1.76713820713626      0.12776233276655
  C          -2.06032453362043      1.22589680664962     -0.41387683149804
  O          -1.94662023857760     -0.39015737904693     -0.23533173661465
  C           1.55998541467654      1.80212681497350      0.13474634154828
  H           0.40734960913426      1.25522376289613     -1.51558692951634
  H          -0.86760266242679      2.11446053557882      1.15024263388810
  H          -2.17674949609062      1.28795137542097     -1.49452022021956
  H          -2.97825911891215      1.45860914080532      0.11159488572292
  C           1.83105919579812     -1.03378453712239      1.93189727216714
  H          -0.25744539640717     -1.50478106515080      1.73786950281404
  H           0.07427117522416      0.20312473360959      1.93752753325858
  H           2.18405845520958     -1.96140566297913      1.48576397014142
  H           1.83081344341448     -1.15396292209851      3.01249942815803
  H           2.52568102793612     -0.23751805322495      1.67689544195969
  H          -0.93380675639004     -0.36759639738826     -2.82552875436678
  H          -1.68589725451432     -1.89700071472051     -2.39661073647237
  H           0.08363089549442     -1.77227732709732     -2.45614834898407
  N           2.53890697813914      2.19533677989595      0.57989198982946
