24
Coordinates from ORCA-job NEB_product E -32.810573032590
  C           2.03947990392505      1.53259079528878     -0.69263144462215
  C           0.86189154150441      1.10920482571894     -1.56294192623781
  C           1.99019353553571      0.72516181833467      0.61599580792435
  H           2.96471675336919      1.27480863376911     -1.22160503385672
  C           1.09431137032675     -0.14841913944427     -2.36050843483564
  C           2.00960551277597      3.06964877891975     -0.46829448312705
  C           1.15014375473966      3.51898310282344      0.68664894486849
  C          -0.03794410581820      4.06981763485219      0.53295645764508
  O          -0.16181507115467      1.73839082431363     -1.62891856756682
  C           3.35491581188749      3.55646770082865     -0.27439516183458
  H           1.62203687676426      3.52818993176547     -1.38738482004046
  H           1.57704437578851      3.38570229162011      1.67159569504165
  H          -0.47901783623520      4.20748468881378     -0.43977945984665
  H          -0.62807061153979      4.38113902665551      1.37799147481663
  C           3.27191839274713      0.85149352436797      1.43061224441054
  H           1.83336326354333     -0.32859735492203      0.37339202192276
  H           1.13152185242193      1.05450950284875      1.20407639176267
  H           4.12586332846946      0.49702172034559      0.85705164540022
  H           3.19539483750589      0.25493315985378      2.33673819413008
  H           3.46534785795702      1.88227391208625      1.71466456213795
  H           1.63038602042806      0.12728194324215     -3.26860433373256
  H           0.14406988711698     -0.59145203662924     -2.64681629207308
  H           1.69859655357018     -0.86863796973248     -1.81723711338824
  N           4.42044619437087      3.94240268427946     -0.12010636889868
