24
Coordinates from ORCA-job NEB_product E -36.566729813140
  C           2.12936128738072     -0.43321233632491      1.16293666910188
  C           1.46554839143712      0.91180114467937      1.45169231670701
  F           1.21942713594327     -1.44908242189538      1.35588462867436
  H           2.46406138580219     -0.50705891624497      0.12118336556752
  C           2.00357717877031      2.04776943238342      0.61218398365288
  C           3.35249474471246     -0.60146889452946      2.11296420234005
  C           2.86957621013897     -0.89204209614071      3.50736855780046
  C           3.18165669198258     -0.14534825134947      4.54840708739927
  O           0.60965732403410      1.03343160960059      2.28411931910523
  O           4.29016682612738     -1.52178344535986      1.59765882351279
  H           3.90228397363619      0.34785479161550      2.10531842127398
  H           2.21864895235943     -1.74774789890058      3.60960807569719
  H           3.81952847902899      0.71908772566626      4.45969367955203
  H           2.80940358781769     -0.36728886662234      5.53341963373038
  C           1.67102569087955      3.40724342504926      1.21328558015290
  H           1.54118983248383      1.95393049274761     -0.37526597570157
  H           3.08018322717549      1.92443857878902      0.47914926215535
  H           0.59947251590490      3.48939946382621      1.37349428441337
  H           1.99274312744384      4.20631737174237      0.55091503949174
  H           2.16597665330313      3.52593921771859      2.17384716769484
  C           3.94898521526805     -2.89165247452197      1.68017371180669
  H           4.72463752258433     -3.41542098408108      1.12421175935019
  H           2.97679236062485     -3.10218883680767      1.22846623858294
  H           3.95120168516063     -3.24111783103978      2.71698416793850
