24
Coordinates from ORCA-job NEB_reactant E -36.564273501010
  C           1.48972984388603     -0.00025817432456      0.27138781664253
  C           1.17419465526795      0.79681033021747      1.28506950297583
  F           1.41342076841369     -1.34251080221521      0.34115033796717
  H           1.81711409853623      0.33966254476149     -0.69869660707276
  C           1.31078195988148      2.29651589398148      1.16845387210787
  C           3.88397315341067     -0.65723504596404      2.89718532334387
  C           2.61651990032713     -0.93078474331962      3.18225089238623
  C           1.61722950220100      0.13133197036662      3.51491822139894
  O           0.66671238954113      0.29748873259538      2.46051597581022
  O           4.86297530930763     -1.50459849316887      2.51450702503631
  H           4.28320138374710      0.34637394272681      2.97799118843629
  H           2.21059330839719     -1.92502345087428      3.08745649402985
  H           2.11646403429887      1.08488329151756      3.73090861610486
  H           1.00795293444867     -0.15927084861964      4.37450763541108
  C           2.76872958077558      2.75688324576593      1.13000460766455
  H           0.80295392969256      2.74713585079864      2.02258848849801
  H           0.80723939367299      2.63278493387987      0.26026396908875
  H           3.28563461872179      2.49212057019064      2.04880752215742
  H           2.81409403942115      3.83701846980772      1.01108327696589
  H           3.29327641204468      2.29398527413983      0.29851048504366
  C           4.50498820916467     -2.85179141330949      2.30064248054728
  H           5.40461073959716     -3.34906100013987      1.94292435257100
  H           3.71373113114538     -2.93345244547054      1.54980847790880
  H           4.17047870409932     -3.32350863334332      3.22966004497637
