21
Coordinates from ORCA-job NEB E -41.201500610150
  C          -0.38684564345451     -0.44327678708282     -0.53177305319055
  C           0.31327465681234     -1.67995530730737     -1.07085279509580
  C           1.39093606024861      1.91820722323264     -1.42728970087189
  H          -0.16834898540907      0.41167098956989     -1.17172404818754
  O           1.60265563551812     -1.35798115786286     -1.26155984400665
  C          -0.10061532596966     -0.10648840714666      0.88974440889594
  C          -1.58603987583499     -0.40023666056527      0.35521300712922
  C          -2.38132555521520      0.76064642704671      0.42422153963746
  O          -0.15074328885111     -2.76523660092972     -1.24531898011665
  C           0.45611754392322     -1.06544543932737      1.89366616641212
  H           0.10081145504545      0.93406379947552      1.09927006954900
  H          -1.96874495704002     -1.31914585115098      0.77512229528434
  H          -2.15712801137499      1.59659640155407     -0.21255939118980
  H          -3.18181858379483      0.86363482810347      1.12744052669122
  Cl          2.93219236354790      1.44549294912474     -2.13912767768081
  Cl          0.22962079104842      2.27493807853415     -2.71996551904364
  Cl          1.52335467155295      3.27269333735502     -0.33056116609423
  H           1.73888398228648     -0.45027886458727     -0.93518519664726
  H           0.31789426163023     -2.09667283388832      1.57521567926730
  H          -0.04033932212468     -0.92850788199177      2.85718961347112
  H           1.51620812745535     -0.86471824215582      2.04883406578710
