21
Coordinates from ORCA-job NEB_reactant E -41.323455458620
  C           1.43952776312880      0.05349902898838      0.21797006801302
  C           0.81468119597885     -0.95728591851609      0.86277192786798
  C           2.63411281932420     -0.12662758745065     -0.60700042304518
  H           1.03783241323403      1.04480332053557      0.31566679486833
  O           1.19670359012995     -2.24057494615340      0.83194050847235
  C          -0.57976046455603     -1.88369945266873      4.79411375815596
  C          -0.11569765373557     -2.06718705754808      3.56940309942570
  C          -0.88573121500367     -1.74159508634695      2.32582199904221
  O          -0.27347839169301     -0.68410780620005      1.57514380335749
  C           0.17065643705472     -2.20593076427719      6.04026180260728
  H          -1.57602877409248     -1.48496707630228      4.93873462533806
  H           0.87850127180557     -2.45964848031790      3.40790389875506
  H          -1.87684719095326     -1.35524706136388      2.57069422547275
  H          -0.97980071110532     -2.63019072354275      1.69146121395070
  Cl          2.35702746863024     -1.29538647670301     -1.97757422209128
  Cl          3.18026856699489      1.39457831101262     -1.30220036666867
  Cl          4.02090092625965     -0.83505594068338      0.33715085256399
  H           1.97123096459046     -2.35835440658517      0.26314897213730
  H           1.15890563151745     -2.59648594293522      5.81323118690425
  H          -0.37574481626082     -2.94428627745651      6.62629834047956
  H           0.27524016875135     -1.31224965548535      6.65435793439316
