19
Coordinates from ORCA-job NEB_reactant E -35.704792700590
  C           1.65903336817257     -0.02600498664651     -0.05045630546406
  C           1.26521300738618     -1.00757956010166     -0.87120190155002
  C           1.94204988885725      1.36151355359329     -0.48588682049722
  H           1.79703436874692     -0.26967198401845      0.99300986256019
  N           1.05437062310274     -2.33767847205141     -0.32318114856551
  C          -0.38565769460655     -0.80284549546560     -5.24959489155998
  C          -0.33301841872159     -0.45178279310260     -3.97994784269590
  C           0.03056468678351     -1.41064658972617     -2.88812802930184
  O           1.16955632543333     -0.86979570180246     -2.20796753101288
  I          -0.90884163756203      0.52903554113996     -6.78415577914099
  H          -0.18449448660445     -1.80163610681902     -5.59818233962399
  H          -0.53083685887210      0.56234528521587     -3.66394456484544
  H           0.27684770833227     -2.39696124182630     -3.29293972614341
  H          -0.81547580445909     -1.51013098238251     -2.19677527736330
  H           1.72595395640333      1.48821523818249     -1.54267787043825
  H           2.99049130623613      1.59725480231173     -0.30648473376313
  H           1.34801496486347      2.06083080006298      0.10140490476604
  O           0.96010328429629     -3.25698033220529     -1.11018102606501
  O           0.98489141221183     -2.44428097435833      0.88349102070468
