19
Coordinates from ORCA-job NEB_product E -35.709195418780
  C           1.58913947606227     -0.16283424676159     -1.58545947178353
  C           0.79824393543349     -0.91079537927912     -0.55852329546099
  C           1.32613978349191      1.33274301809134     -1.43482733980920
  H           2.65284475145396     -0.38049875453947     -1.43724469925552
  N           1.35911575115667     -2.33014374224478     -0.26204655717972
  C           1.17855687086281     -0.75780815260664     -2.95092242010763
  C          -0.26509106973248     -0.59759969157204     -3.26418380292134
  C          -1.06355915368076     -1.62061921875636     -3.51173538974033
  O          -0.18485644246043     -0.60348883417133      0.02254795120754
  I           2.36611446023578      0.15636702423323     -4.54444557761232
  H           1.46848445275337     -1.80886918459043     -2.98769360259065
  H          -0.63885169479544      0.41571471491618     -3.29440557159316
  H          -0.70809136177596     -2.63869950177561     -3.50182649087925
  H          -2.10679488958482     -1.48145144511783     -3.73308801376883
  H           0.25977647026450      1.54250342893180     -1.45030701130059
  H           1.81170275294610      1.88713286456764     -2.23372114795387
  H           1.72455451900205      1.68156797524209     -0.48503225469562
  O           0.75086865758118     -2.96683483353712      0.55225261471998
  O           2.34010273078579     -2.67428604102995     -0.87883791927497
