17
Coordinates from ORCA-job NEB_product E -42.181554532820
  C           1.83610158083115     -2.72615361474921     -0.78826656302607
  C           0.35796717127306     -2.78621702386797     -0.53817179805771
  I           2.29602059973717     -0.62456543531947     -0.51067763840255
  H           2.39431418986653     -3.25820121040946     -0.01617955792381
  F           0.10125787926213     -2.97006210238457      0.77699340389654
  C           2.20305707546978     -3.19202646390207     -2.19602185978189
  C           3.59327530952754     -2.78533836422489     -2.60574731339801
  C           3.86016549547329     -2.14746693818928     -3.72873273907744
  O          -0.52089411721410     -2.65806950561914     -1.31164441267131
  C           2.12405328140309     -4.72133702199017     -2.22731952735883
  H           1.46358793277252     -2.81584168522490     -2.91296219113279
  H           4.37690781806715     -3.06741190453596     -1.91589306761964
  H           3.08713772731917     -1.86917547764482     -4.42555128035684
  H           4.86649733841336     -1.87446307745683     -3.99126888853591
  F           3.03246143957739     -5.28321433644807     -1.41486059657147
  F           0.93105724971218     -5.18780287706698     -1.83243545762866
  F           2.34473202850858     -5.20175296096619     -3.45226051235361
