18
Coordinates from ORCA-job NEB_product E -38.036424608950
  C           3.23180285809759     -1.09053218150058      1.15052163304189
  C           1.75307667398599     -0.88057736321363      1.08855792128207
  Br          4.07255341632430     -0.15224388858121     -0.33975598808627
  H           3.65702137027187     -0.66913739780477      2.06482589021167
  C           1.00932929132343     -1.16604844348623      2.41909679990793
  C           3.60664051886401     -2.61054902852460      1.08913325914601
  C           3.05628613974491     -3.22709936865169     -0.16704444227951
  C           1.99799277048098     -4.01327416004767     -0.19655087224928
  O           1.13652623788829     -0.55380346918954      0.11635962383453
  O           4.98340019923644     -2.76415987554374      1.21861731661969
  H           3.17321671151751     -3.09092600763741      1.97351791904539
  H           3.59459250509993     -2.97848690248768     -1.07262618881707
  H           1.45354438001991     -4.27239493909504      0.69640385678032
  H           1.63326267918510     -4.42811240386129     -1.11984503935874
  F           0.82740793223432     -2.49998641803377      2.55978088294073
  F           1.73182458944853     -0.76081419432730      3.48563944228761
  H           0.02548464170563     -0.67552554975920      2.44305441943444
  H           5.42153708457125     -2.44092840825465      0.41771356625859
