19
Coordinates from ORCA-job NEB_reactant E -41.738482414510
  C           1.61933199544516      0.03977097354513     -0.03936101345769
  C           0.87704393162237     -1.05498555936128      0.16488709199449
  C           2.04064807594417      0.44893377318113     -1.39430467269965
  H           1.91760754668014      0.64324891942692      0.79865950574042
  F           0.53089774099453     -1.37545631175527      1.42373246329410
  C          -0.03670698884760     -4.87654597229885     -2.03700170096448
  C          -0.65962884189661     -3.76072905063015     -1.65546300080761
  C          -0.31800241941031     -3.03382279848029     -0.40311190416322
  O           0.44771575283961     -1.86338129346986     -0.77187448463775
  N          -0.35810391650712     -5.61760997201855     -3.14470416444973
  H           0.72797873027994     -5.31880102905725     -1.41192359576179
  H          -1.41318924029706     -3.30887360936803     -2.28159323611847
  H           0.28733035633050     -3.65711434319478      0.26343655824929
  H          -1.21752598379351     -2.70460617189962      0.12988176571211
  Cl          0.62954058199984      0.77167372870185     -2.45002338193503
  Cl          3.02513921670000      1.91456724272669     -1.32473390492612
  Cl          3.00256644182921     -0.83401813352007     -2.19384686820013
  H          -0.92317764178300     -5.15141358891725     -3.83729039308499
  H           0.36073466186976     -6.21173680361045     -3.52196506378374
