20
Coordinates from ORCA-job NEB E -41.966429334200
  C           0.29304591577760      0.58871459318439      0.80707065651279
  C          -0.85044950532816     -0.20417252663955      0.64356469914655
  C           0.16428107326453      2.05667852878266      0.46671903194433
  H           0.88498134177525      0.41551857106487      1.70071897827027
  C          -0.93820158804116     -1.50073538501606      1.44306741516922
  C           1.41888582540169     -0.10832742664888     -0.62854689841333
  C           0.60665529999735     -0.82820853920190     -1.50776817149002
  C          -0.63294724829952     -0.24278219630027     -1.86651538072765
  O          -1.51059715993051     -0.18737722298245     -0.46857844635000
  F           2.38484131028855     -0.81266444157129     -0.00540060937559
  H           1.80200878789234      0.87035888529087     -0.89932135830350
  H           0.64933412034487     -1.90734938862173     -1.42691858832694
  H          -1.29157851996582     -0.83051406250486     -2.49300979876040
  H          -0.61192246362477      0.80403502922850     -2.15265499332336
  F           1.38653440531165      2.65725794811241      0.31293664116815
  H          -0.32935664672847      2.57152507759150      1.29940006743045
  H          -0.39867578224730      2.22622079372155     -0.45501209802657
  F          -0.36827991288627     -1.36904111942548      2.66140514306320
  F          -2.22220396418380     -1.86158791158271      1.64997426472172
  H          -0.43635528881802     -2.33754920648157      0.91886944567068
