20
Coordinates from ORCA-job NEB_reactant E -41.999243013960
  C           1.56678405546288     -0.13452118070621     -0.11867960819799
  C           1.57847737896390     -1.41435202575235     -0.50748761214776
  C           1.82298982813815      1.10613188431567     -0.92023483063413
  H           1.37638544071962      0.04060074141236      0.92869603143826
  C           1.21427001815589     -2.47358685821410      0.52762825685990
  C           4.10109961578535     -2.24502132564110     -4.21331412537204
  C           2.86429691422710     -2.30637984967698     -3.75981307258373
  C           2.29807486367304     -1.29762405976316     -2.81171681901609
  O           1.80705200688763     -2.01242930421522     -1.68395792698120
  F           4.58160291274037     -3.14880090829451     -5.07442860305696
  H           4.83022074139838     -1.48281298097696     -3.97603328679088
  H           2.21273217149783     -3.11757827474846     -4.04603244574257
  H           1.46451819487467     -0.77062618865520     -3.29552984803875
  H           3.07035070184091     -0.58440319069844     -2.51384481443812
  F           3.17645706169851      1.28058014230355     -1.16379670182884
  H           1.50471366397335      1.98831696047645     -0.35879132019913
  H           1.33671286634111      1.09935983271375     -1.89937282651221
  F          -0.12316297891929     -2.71005085142676      0.49695606707730
  F           1.81613608918512     -3.64881007729454      0.27008069970231
  H           1.47258845335547     -2.17169248515780      1.55387278646264
