17
Coordinates from ORCA-job NEB E -37.248344202710
  C           1.06378565891811      0.33805245374081     -0.25808144838071
  C           0.21032478630212      1.43646596881163     -0.14779064128886
  C           0.97242541644206     -0.43371269816925     -1.56398749631199
  H           2.09222937819670      0.44952091855417      0.07261831452999
  I           0.76757011984426      2.95389498051452      1.27421412043329
  C           0.19944517793431     -0.81238513287829      1.06705570738201
  C          -1.12759590568059     -0.84223065379311      0.64071983315518
  C          -1.84093433941878      0.38798103351440      0.60406582359575
  O          -1.02317996092402      1.34757009772194     -0.44017382588984
  Br          1.16484547569814     -2.46115199356038      1.12554462341330
  H           0.46793520240455     -0.20277314862712      1.92363469020508
  H          -1.45841987652369     -1.65645691854409      0.01306532228403
  H          -1.79219947426422      1.00900840876100      1.49648290213297
  H          -2.83221940945102      0.35974926343214      0.16914782367525
  F           1.23101574587770      0.40801858098352     -2.59589579466573
  F           1.91579269570658     -1.39130080482164     -1.62822805520281
  H          -0.01082069106220     -0.89025035564026     -1.75239189906689
