17
Coordinates from ORCA-job NEB_product E -37.291333151970
  C           1.72331363923481     -1.13366011331478      1.44040774973854
  C           1.05023272097776      0.21382154620855      1.37952576210276
  C           1.59915711004868     -1.80726587012622      0.06057910367669
  H           2.79431082572183     -0.98335141347674      1.62332083033811
  I           2.07982447100025      1.60501749892109      0.07538522376385
  C           1.11258412667889     -1.95237021662315      2.59548003309243
  C          -0.14763580408145     -2.67415699362826      2.25885402249327
  C          -1.31488249909901     -2.34866241336426      2.78209977697556
  O           0.09027784682310      0.56560413355042      1.96473255742767
  Br          2.46914678242895     -3.24776565653971      3.23742467868463
  H           0.95078114313320     -1.28107414185555      3.44329348780006
  H          -0.05328180118912     -3.49993425856336      1.56813639651294
  H          -1.42149319252909     -1.53083623439532      3.47578191720105
  H          -2.21236351491003     -2.88039432738993      2.52094994394809
  F           1.98065418482571     -3.09459679193947      0.10878831428547
  F           0.31741328611938     -1.79781656530425     -0.37051051856506
  H           2.21166067481614     -1.30215818215907     -0.70264927947606
