17
Coordinates from ORCA-job NEB_reactant E -37.276111403690
  C           1.70520282767135      0.04070287808656     -0.05548745202072
  C           1.15395896797886     -0.07165064984348      1.15404413232440
  C           2.07932616204777     -1.17673190747151     -0.84642130122797
  H           1.91859875510489      1.00015516955500     -0.48825364930661
  I           0.61258061184263      1.71881756552897      2.18266499687632
  C          -0.05756252160953     -3.41025518728773      4.21471740499075
  C          -0.10846791940329     -2.89715339265114      2.99871125366934
  C          -0.02178628908447     -1.42828053062399      2.73176535870830
  O           0.99165387200876     -1.23155501348151      1.75968058388868
  Br         -0.20220545422160     -5.25867112423854      4.54404918427671
  H           0.04542669620745     -2.82417239308493      5.11493822160617
  H          -0.19991852889959     -3.52135654458882      2.12193452418342
  H           0.22179010356264     -0.87602222443619      3.64909180133102
  H          -0.98556835891273     -1.06830313364728      2.34333150946259
  F           3.11109741515372     -1.85284086129658     -0.27627228696905
  F           1.05217758134030     -2.06407993866617     -0.91170827101048
  H           2.37329607921285     -0.93130271185266     -1.87758601078286
