21
Coordinates from ORCA-job NEB E -32.768925158920
  C           0.34032807548982     -0.13022580192983     -1.18104936600576
  C          -1.14774310342228      0.14086537542834     -1.28854365496618
  Br          0.71854136772293     -1.70909119627653     -2.26760690092442
  H           0.90752335406036      0.68560860105973     -1.63585667318149
  O          -1.44378463082099      1.43992874948085     -1.61985503233643
  C           0.76659271400258     -0.33438728791083      0.28528657907544
  C           0.05062190848849     -1.49851646334621      0.90422189756329
  C          -0.82962078274384     -1.39390918551062      1.88052526486756
  O          -1.99637235165805     -0.68219866975059     -1.14521867459592
  C           2.28127966377001     -0.51939908227077      0.38319642518117
  H           0.48835411110152      0.58153476942370      0.82335361383516
  H           0.30230239287361     -2.46539475799701      0.49140414135550
  H          -1.09448776943682     -0.44221201452932      2.31423751447919
  H          -1.31853394470800     -2.25738639161109      2.29537283325238
  C          -1.48326260391601      2.38002043620578     -0.56154963251612
  H          -0.48101672445769      2.58012351600678     -0.16685204950166
  H          -2.13589609609971      2.03293036283704      0.24427466133947
  H          -1.89096989165716      3.29175370816074     -0.99293629150619
  H           2.80407807750011      0.34228001214310     -0.02770624646942
  H           2.59374488303188     -1.40807765281993     -0.16032279478546
  H           2.56832135087924     -0.63424702679333      1.42562438583989
