21
Coordinates from ORCA-job NEB_reactant E -32.760477423550
  C           2.51172982798864      0.07398962380054      0.28824739129450
  C           2.01175633957870      0.80766579235609      1.28886321552936
  Br          2.84984663721228     -1.78087318728055      0.22794276895176
  H           2.74982906419382      0.57439926269452     -0.63270199353146
  O           1.86054968324458      2.12986108691929      0.99893870575945
  C           4.32013111484063     -0.15737046755888      3.23836974578924
  C           3.34507077144622     -1.04757022434119      3.30857496979045
  C           1.88507731611212     -0.75005212884950      3.12721373203014
  O           1.60999238436562      0.51001130237174      2.53830596180815
  C           5.76529391651797     -0.47824535884162      3.40658961085332
  H           4.09785704054291      0.88311914864164      3.03592817855563
  H           3.55885943384506     -2.08797249302514      3.50740694512384
  H           1.39421135994520     -0.68714769103544      4.10608701265891
  H           1.40036968425302     -1.55374560553323      2.56222713913679
  C           1.32239265835247      2.96481641590563      2.00703570576947
  H           1.29757162119094      3.95940300368175      1.56702601047157
  H           1.95141056884285      2.96773438162933      2.90060638758829
  H           0.31251848422471      2.65294957429408      2.28299428277738
  H           6.31205712538826     -0.22255267961695      2.49939449375953
  H           5.90733424589998     -1.53514174479907      3.61547558630109
  H           6.18824072201403      0.10702198858696      4.22257414958258
