21
Coordinates from ORCA-job NEB_product E -32.780219051680
  C           3.25493244586779      0.59574537671261      1.35857563678602
  C           1.74818231871289      0.76177845928731      1.22487065339398
  Br          3.84423163511712     -0.53552274843006     -0.11805151496616
  H           3.79374102864393      1.53628598495576      1.23029775567861
  O           1.19968142234793      1.91318559493902      1.64123519348790
  C           3.58710672364984     -0.03282881045149      2.72578460984849
  C           2.93160374906017     -1.37601273454433      2.86982208065548
  C           1.94775481577350     -1.63097601417205      3.70944027551622
  O           1.03687244602657     -0.10453326053882      0.80726968767939
  C           5.09904918538601     -0.14241680907671      2.92037539433487
  H           3.17818968261259      0.63988079595193      3.49188104432948
  H           3.32047426354227     -2.15065344242522      2.22400672808319
  H           1.53873959471219     -0.87456947997012      4.36067144087038
  H           1.50346304562906     -2.60796122043376      3.77944782380189
  C           1.94907474125757      3.02886033947392      2.08122700622207
  H           1.20793110131276      3.77306762703558      2.36887703170918
  H           2.56843280980259      3.43742422678139      1.27827157537631
  H           2.57203037678149      2.79126424644486      2.94661636376068
  H           5.53362814829566     -0.79507103228617      2.16664457498202
  H           5.31206721506929     -0.55977867400548      3.90147575663385
  H           5.57251325039879      0.83533157475183      2.84876088181616
