21
Coordinates from ORCA-job P E -31.333971340530
  C          -1.35378981170135      0.46414216103698     -2.34725780510574
  C          -0.17848186549780     -1.65640946944892     -1.08229890026395
  C          -1.51621249487624     -1.85590703709044     -1.72140363154823
  C          -2.08352043386527     -0.83799522026048     -2.34929228102365
  C          -0.89896200477660      0.80691319391317     -0.92588913069463
  C          -0.16179686134344     -0.35626505357129     -0.24055186119668
  H          -1.97854583316759     -2.82820797312370     -1.66406825836600
  H          -3.04187281879822     -0.89956926056505     -2.83692891673393
  Cl         -2.38767834739092      1.78304403584817     -2.97017702666520
  H           0.08355152284666     -2.50778129151219     -0.45524347952016
  H          -0.48774143427002      0.42056011310552     -3.01664142999665
  H           0.57730172440601     -1.56723473835645     -1.87009428232615
  H          -1.78191971637889      1.07604337567670     -0.34486978186643
  H          -0.64806822879946     -0.57484471279643      0.71413722316406
  H          -0.23679982208794      1.67453478589685     -0.96314939696775
  C           1.29529950042287     -0.00368297844609      0.04509641218547
  O           1.83901629446032      0.95588984806680     -0.43636562523190
  C           2.01924796739812     -0.97085855735552      0.94727326048753
  H           1.37314777151005     -1.33942863334973      1.73849625969767
  H           2.89511565275493     -0.48831933212403      1.37321602659175
  H           2.35661923915477     -1.81873325554387      0.35310262538060
