21
Coordinates from ORCA-job R E -31.246615738300
  C          -1.27106040720301      0.07044829884127     -2.80643507170084
  C           0.01403257749132     -2.49526015917772     -1.89716179782500
  C          -1.28473014273829     -2.21321822714125     -1.87380304634119
  C          -1.91609355394404     -1.03001186007128     -2.42756182918375
  C          -0.78655439218336      1.69041185995807      0.11465988132898
  C          -0.12580054670579      0.67136159450243      0.64927863180093
  H          -1.97097488320032     -2.92000401060044     -1.42402344720636
  H          -2.99354187948135     -1.06786692303648     -2.51791726420158
  Cl         -2.09699953019948      1.42999770479722     -3.44961771032064
  H           0.39531435082570     -3.40494038501654     -1.46519825250912
  H          -0.20563458972489      0.21225187107542     -2.72177692554744
  H           0.73705928580663     -1.84061276476676     -2.34971637663931
  H          -1.66644829196751      2.11406524329636      0.56801723199789
  H          -0.43968706326932      0.21544973030226      1.57752533961803
  H          -0.44616134844243      2.13634914916959     -0.80553906288436
  C           1.08272562926081      0.10626921516813      0.01097502049999
  O           1.46722440352348      0.44788887524552     -1.08487801667154
  C           1.79257844742933     -0.93597817836478      0.83568587107185
  H           1.12603016356933     -1.78245828490546      0.98965133778755
  H           2.04887554754596     -0.52296619774487      1.80924290025654
  H           2.69358622360725     -1.27122655153069      0.32940258666934
