21
Coordinates from ORCA-job TS E -31.236338353780
  C          -1.18533835002027      0.84511649758993     -1.75511426791122
  C          -0.00104294412574     -1.49802241565873     -0.57951366952854
  C          -1.32361749592728     -1.39557223397925     -0.83854156560466
  C          -1.90966022866282     -0.27154490137278     -1.46431825623367
  C          -0.64018304623117      1.44675417761505      0.29121618803987
  C           0.06761576938979      0.45048248365495      0.89706172838872
  H          -2.00212507052721     -2.13172381770128     -0.42913118597084
  H          -2.98763733035105     -0.22773199068545     -1.52466178802844
  Cl         -1.97126443904738      2.23068806021210     -2.41687598026494
  H           0.37611543363256     -2.32804086540932     -0.00523979882828
  H          -0.12750076991066      0.82563086508936     -1.96138715318858
  H           0.73386124183800     -0.92946421309941     -1.11698204404049
  H          -1.66054158613489      1.64475484922289      0.57216833076411
  H          -0.39772685793309     -0.20210321493314      1.61863127890458
  H          -0.09344825803196      2.25835698806209     -0.16018106839494
  C           1.53246578071321      0.42145589853338      0.78541072528135
  O           2.13407688565173      1.03695136230853     -0.07045508953195
  C           2.23867849126547     -0.39935709482242      1.83888154825657
  H           1.82090822458602     -1.40135897640686      1.88770047884326
  H           2.09394085465447      0.07504273124870      2.80820814829381
  H           3.30242369517225     -0.45031418946835      1.62312344075426
