20
Coordinates from ORCA-job NEB E -52.044246354390
  C           1.08405585383086      0.40709688174285     -0.43598097324512
  C           0.54738900057616      1.70153314294088     -0.53669170420834
  C           0.97947269328576     -0.43611743205549     -1.69208752118055
  H           2.08004540869405      0.31858181477253     -0.00875452576939
  Br          1.29556569914944      3.01618481632346      0.68668111102012
  C          -0.14788573608521     -0.31269042980186      0.88672325967564
  C          -1.40388046044641     -0.03819607997621      0.32857355748407
  C          -1.75614019901665      1.32051185987986      0.09681216803332
  O          -0.63734418447790      1.90653568490889     -0.93481892366583
  C           0.17262319569912     -1.72495828955317      1.29470866213889
  H           0.19529871952548      0.36945821890010      1.66724874152467
  H          -1.91382468284937     -0.80358128706155     -0.23747512381387
  H          -1.61450201123091      2.01182544450754      0.92587129614280
  H          -2.67985827221766      1.48964796795978     -0.44178622088393
  F           1.62664443718188      0.16752059349846     -2.70085415329629
  F           1.56407855973059     -1.62861813949675     -1.53716071262158
  F          -0.26456078088536     -0.65918630903863     -2.11698441582449
  Br         -0.71729626575525     -1.99186243058883      3.04637831129712
  Br         -0.49114272652215     -3.11080461137087      0.11060896288206
  Br          2.08126175181354     -2.00288141649096      1.59898820431069
