20
Coordinates from ORCA-job NEB_reactant E -52.077855038060
  C           1.65565426804091     -0.05825757641591     -0.14204526940237
  C           1.05789227413061     -0.05215554664099      1.05313950435632
  C           2.01456467423418     -1.34867286189557     -0.80265977126106
  H           1.90533882339636      0.84381981599681     -0.66888571597828
  Br          0.61900272023074      1.62253536415508      1.84519687125681
  C          -0.13044968617329     -2.99992011412128      4.57688604918806
  C          -0.17587350483661     -2.57009781738344      3.32637215721066
  C           0.07119617823286     -1.14865999083253      2.93981603657038
  O           0.76998103232313     -1.16325389745144      1.70591775014699
  C          -0.40442083212380     -4.37944467360124      5.03475165283923
  H           0.10558530584634     -2.32308315126498      5.39006759224778
  H          -0.39854898795733     -3.22590089902072      2.49610016769510
  H           0.65450835975498     -0.62149652034529      3.70508465757643
  H          -0.89370339479104     -0.63368447478295      2.81670188736416
  F           2.91944969013492     -2.05956141944039     -0.10514876360611
  F           0.95647367456107     -2.16311031418737     -0.96742382846086
  F           2.53752000557153     -1.14751197283008     -2.01603000835007
  Br         -1.93737501199432     -4.34212763612228      6.28127240407819
  Br         -0.81403163413519     -5.64478138124343      3.62504902301433
  Br          1.16003604555395     -5.05293493257196      6.02663760351432
