20
Coordinates from ORCA-job NEB_product E -52.086674180720
  C           1.51823011842549     -1.49116374727514      1.72619886768791
  C           1.02095243318952     -0.14889397777817      1.22972044497835
  C           1.58527924812569     -2.44389097689346      0.52279424209035
  H           2.55201386443376     -1.38974445483656      2.08221934455727
  Br          1.48679980713206      1.28590805519723      2.46328592538838
  C           0.60349346759317     -1.87409595092536      2.92034602498213
  C          -0.85802473471819     -1.76974678087037      2.56094966973740
  C          -1.69067350963807     -0.97415767559353      3.20601119481663
  O           0.40122232446771      0.08845644458370      0.25858522842458
  C           0.88976382882109     -3.22209369796677      3.58788511233529
  H           0.82072942617707     -1.12008680436150      3.69220906523337
  H          -1.20063029697711     -2.39094875278989      1.74662691082174
  H          -1.37266922325590     -0.34661037287980      4.02321725456632
  H          -2.73054816596491     -0.92245733069001      2.93748963272757
  F           2.25225088985555     -1.85688587824499     -0.47824555833599
  F           2.26560218331317     -3.55667132368512      0.81542698401681
  F           0.40069213121938     -2.81442778554728      0.04514441096135
  Br         -0.02082620734391     -3.21073611445591      5.32573956942968
  Br          0.21935681394205     -4.77233691795859      2.62046981277109
  Br          2.80138560120238     -3.45791595702849      3.94882586280976
