21
Coordinates from ORCA-job NEB E -40.902787607380
  C          -0.02530937459937      0.41153979221445      1.20392124984929
  C          -1.39256437840548      0.33404496837340      1.33545099739711
  C           0.64039726633911      1.72709775666182      0.89457333716025
  H           0.59799772028618     -0.21637577919652      1.82502823783335
  I          -2.06634056676820     -1.40304548673381      2.49153829558212
  C           0.10561944226924     -0.54901030268292     -0.80912624781813
  C          -1.24036224220047     -0.69503818724786     -1.13388785578693
  C          -2.08151611845548      0.40522367705743     -1.17424176909976
  O          -2.24135521113016      0.89349040731599      0.63408036154628
  O           0.83750759643042     -1.64526829681548     -0.61236986505570
  H           0.63553177567941      0.33944826544408     -1.13869534544414
  H          -1.66202142403267     -1.68260191554634     -1.00291350438155
  H          -3.13098910089276      0.25712949816964     -1.37230112008590
  H          -1.68731282397774      1.37063134086536     -1.45243391759136
  F           1.94564543704015      1.52578599430122      0.56524515181104
  F           0.09883187940657      2.39372419141773     -0.14967159394740
  H           0.62927560175874      2.41114743414750      1.76082734628350
  C           2.23674255365192     -1.48801822960176     -0.49071946101057
  H           2.50484901595220     -1.17707565924060      0.52262663875375
  H           2.67538329443076     -2.46222996502500     -0.69687827278091
  H           2.61998965721765     -0.75059950387833     -1.20005266321433
