21
Coordinates from ORCA-job NEB_reactant E -40.934087214130
  C           2.29441139624122     -0.40361310018684     -0.24982375902073
  C           1.61065074900308     -1.43095066881851     -0.74669917011354
  C           2.38733505908738      0.94670133105475     -0.89297706004914
  H           2.83212250202866     -0.50649215246492      0.67662774547951
  I           1.59296010328505     -3.24019762560718      0.39857240187786
  C           3.88365970181544     -2.20547529380225     -3.18988629757143
  C           2.58392141242343     -2.47731835932391     -3.27876443196821
  C           1.54694826800813     -1.41495154923213     -3.12517586419423
  O           0.88372630722024     -1.52976306345698     -1.84292729646273
  O           4.92157051876314     -3.05615175434525     -3.24985495382415
  H           4.24258431323178     -1.19020794215579     -3.07313124202772
  H           2.21251059899908     -3.48487034228362     -3.38271398771077
  H           0.72868859564129     -1.53832719816498     -3.83665950762208
  H           1.98239227192684     -0.42045079353359     -3.24044314128517
  F           3.40997407361656      0.99852575641505     -1.79931426015561
  F           1.27334076990495      1.28015169545661     -1.58494667470794
  H           2.57313699372783      1.73980124659284     -0.15312891986188
  C           4.63799050676808     -4.43379517055678     -3.36461019982560
  H           4.04510904152808     -4.78631000904765     -2.51530411114871
  H           4.10480660529722     -4.65082151456895     -4.29481593341949
  H           5.60186021148250     -4.93868349196992     -3.37042333638825
