21
Coordinates from ORCA-job NEB_product E -40.944267773350
  C           2.52681167074156     -1.24522693142260     -0.95949347554558
  C           1.13197043846994     -1.73145402172139     -0.70814357673505
  C           2.54260865058012      0.28480837964706     -1.03954748595857
  H           3.17122120044451     -1.54739362929487     -0.12632091969327
  I           1.04609908440040     -3.78837246525460     -0.09686527731144
  C           3.13955569603947     -1.88471902559299     -2.23610628647329
  C           2.15384417172321     -1.93528784529285     -3.37368201862792
  C           2.30277724854186     -1.26987394214475     -4.50208496271871
  O           0.13570929097401     -1.09843942346694     -0.78970921283382
  O           3.57164714662885     -3.17068101478573     -1.84436652386392
  H           4.01034763082408     -1.27382100063988     -2.53111906684403
  H           1.30944719488797     -2.59343542832754     -3.21771178661126
  H           1.57971462116786     -1.33408776989871     -5.29594734237801
  H           3.14209538848313     -0.61477684828767     -4.66784816145132
  F           3.82129841449853      0.72772464369006     -0.98080219649598
  F           2.04123681471056      0.74421362116188     -2.20307584644832
  H           1.98051559681429      0.75815672482967     -0.21969898778435
  C           4.32450645798172     -3.84749901110136     -2.82161682807724
  H           5.23123707278586     -3.28534945647069     -3.07345986172245
  H           4.59493285794737     -4.80345010134468     -2.37962189311498
  H           3.74412335135468     -4.01403545428142     -3.73457828931048
