17
Coordinates from ORCA-job NEB_reactant E -33.790476101300
  C           0.54304336568527      0.81996564053570      0.34209818723712
  C           1.76907836996084      1.28082475341247      0.59201512271744
  Br         -0.43582628749133     -0.09156587433180      1.66472081768011
  H           0.05313329154775      0.89530498699180     -0.61095463764257
  C           2.54749559193680      1.98979954953867     -0.48737820410257
  C           1.33295612938766      3.37648958381596      3.00030401264665
  C           2.62826630517099      3.24778003690534      2.77041013001938
  C           3.26291878191973      1.95877313261924      2.32822693845825
  O           2.34019765937885      1.02745705658522      1.79730360506170
  Cl          0.62538753085315      4.85716831939527      3.49577565544217
  H           0.62385656258295      2.56842391858752      2.90626508166783
  H           3.30392208345597      4.08071032499341      2.88755826781851
  H           3.70180147776687      1.44427271160351      3.19023362938949
  H           4.06824087255463      2.17726491336649      1.61657534304629
  F           2.65752398220186      3.33797810855045     -0.23534918211641
  H           2.04013633163788      1.88943043732151     -1.45004597655031
  H           3.56856795145010      1.59642240010924     -0.55775879077308
