17
Coordinates from ORCA-job NEB_product E -33.796666773070
  C           2.14811781103239      2.10168594813764      0.76100815148405
  C           0.85011262178188      2.61748462186761      0.14149585321772
  Br          2.00215910915824      0.14501161904097      0.65656819551356
  H           3.02539438120358      2.36454371845270      0.16775235401941
  C           0.93774064194551      2.76538460960838     -1.36615339563310
  C           2.30388487621090      2.53117502121250      2.20849903185957
  C           3.46263883524628      1.89663271072659      2.89631141927178
  C           3.36449093056083      1.27332451014673      4.05604804287497
  O          -0.12790112645363      2.84156061517260      0.79007172312728
  Cl          2.56332463282050      4.32036025187721      2.14658847267030
  H           1.36931115093523      2.37177541805574      2.75346947565475
  H           4.41109801099196      1.98735345864617      2.38491016801656
  H           2.42457456870986      1.18211278396116      4.57475209237657
  H           4.22013785743497      0.82308726339792      4.52713168453881
  F          -0.25712616912789      3.13766198690668     -1.89903497166646
  H           1.22706978243190      1.81344201393148     -1.82906544715607
  H           1.67027208511747      3.54240344885791     -1.62005285016970
