21
Coordinates from ORCA-job NEB E -33.379539644750
  C           0.37962395434958      0.88676509173481      0.40782372564740
  C          -0.84651652458958      0.35419594954540      0.83590525410306
  C           0.32610885134172      1.82863123135884     -0.76954082845418
  H           1.11150865373787      1.15965425969834      1.15936372176159
  C          -0.99566982613726     -0.17472922857614      2.23741462988745
  C           1.15369992249769     -0.79368482390892     -0.31846381897682
  C           0.21662141767628     -1.06396785425623     -1.32758737481275
  C          -1.09664895398131     -1.37611936922668     -0.95476344133705
  O          -1.70172057991383     -0.00116158186585     -0.05705563913511
  O           2.45322673526260     -0.51901941520891     -0.57141193471304
  H           1.08984512451436     -1.37064796435223      0.60009559827661
  H           0.39955125645288     -0.64750189527887     -2.30935202052436
  H          -1.23855919790338     -2.09032853782526     -0.15293017181099
  H          -1.84037963810339     -1.44784398205542     -1.73465189980072
  F           1.48125217850642      1.83310278363205     -1.52330237576838
  H           0.19602521112573      2.85839735452074     -0.41527794656212
  H          -0.49304995574001      1.56096220970311     -1.44237504295276
  H          -0.86249751707248     -1.25862709177740      2.23848610154902
  H          -2.00140379009690      0.02975657681129      2.59760460281104
  H          -0.27059706386400      0.27387613160978      2.90858082530172
  H           2.53957974193699     -0.04170984428246     -1.40856196448959
