21
Coordinates from ORCA-job NEB_product E -33.417409059520
  C           2.67804961626663     -1.14062546679796     -0.21209728020426
  C           1.33801325389402     -1.37049354776480      0.46298083130209
  C           2.54967138303703     -0.00305848959121     -1.22283501360443
  H           3.43906127566948     -0.89664429292416      0.53529765470067
  C           1.42562340515087     -1.92384469709389      1.85906046477464
  C           3.14065514098779     -2.47757771389645     -0.89112611888219
  C           2.37364803226148     -2.72480213722472     -2.16039321517441
  C           1.26234379818992     -3.43238296853636     -2.22342371497163
  O           0.29295748191800     -1.12909504742046     -0.08586970850185
  O           4.52757860570067     -2.47694182857912     -1.08563392786571
  H           2.95733123242132     -3.29685374547292     -0.18645898555240
  H           2.79944105820820     -2.27621265128085     -3.04854286645154
  H           0.82831680522577     -3.88950162064278     -1.34980508768553
  H           0.73440050009382     -3.57634532268919     -3.14999330421257
  F           3.70190419067620      0.13482110977922     -1.96382239124474
  H           2.38548541162494      0.95266033784377     -0.71613617065376
  H           1.73347626822245     -0.19783456868312     -1.92348876680267
  H           2.20967683667227     -2.67169546797226      1.93781331843129
  H           0.46903275758622     -2.34293613784172      2.15898638941406
  H           1.67220428252588     -1.10528841337201      2.53452911761887
  H           4.75282866366702     -1.78424732983902     -1.72054122443393
