21
Coordinates from ORCA-job NEB_reactant E -33.406700727000
  C           1.82655328151287     -0.16681256097363      0.06689776092065
  C           1.48335120414238     -1.36102956351948      0.55863114392167
  C           2.02429291637528      0.32595675197037     -1.32923230565266
  H           2.04733100322520      0.59258981284892      0.80351762994091
  C           1.34630633609544     -1.54899565048275      2.04730335698441
  C           3.67910070141695     -3.97086966965523     -1.80287750992083
  C           2.97446899246646     -2.86105433414783     -1.62895355420095
  C           1.49883901782222     -2.86213192728070     -1.38103990757245
  O           1.15724342009649     -2.53384772937372     -0.03970820031264
  O           5.01000288664489     -4.03195766593280     -2.01423997200537
  H           3.23272146090356     -4.95518473301208     -1.81220218499393
  H           3.47791798305343     -1.90555508883504     -1.61607453702960
  H           1.10332795621047     -3.87461995148644     -1.50275111331120
  H           0.96997174998893     -2.20333747526607     -2.08117049993870
  F           3.38024843206732      0.50169015524420     -1.59681045630434
  H           1.57516920487624      1.31909806044522     -1.44499340290259
  H           1.64918226219645     -0.33298439610294     -2.11192593303426
  H           2.13566234447152     -2.20926493046860      2.40250467118387
  H           0.39374511542924     -2.02855536672389      2.26057230855420
  H           1.40434962832301     -0.60430951275805      2.57608052437727
  H           5.38621410268164     -3.14162422448947     -1.99722781870346
