20
Coordinates from ORCA-job NEB E -37.751810376150
  C           0.43111690753086      0.94158701946207     -0.16177790722979
  C          -0.84022050574406      0.58860796466838      0.30790090947710
  C           0.58568935657639      1.27391420792017     -1.62717544611297
  H           0.97758741962519      1.62727043005826      0.47961743917508
  C          -1.10840815753983      0.83361276149050      1.78877483056587
  C           1.37209709921361     -0.76566321919076     -0.01408748848510
  C           0.42245757807188     -1.74976353777625      0.23906469674249
  C          -0.73236219620537     -1.74668752209127     -0.59892898738329
  O          -1.51784989200901     -0.39083160033779     -0.22074922873246
  H           2.13210163476568     -0.60700362563226      0.73915736980321
  H           1.74301265381417     -0.70272376954095     -1.02596754917456
  H           0.28351168964103     -2.08355395653035      1.25941786724619
  H          -1.49486498167297     -2.49097051830672     -0.40044128785741
  H          -0.54537491226225     -1.62112381351916     -1.66303642440074
  H           0.04948785571716      0.56929980309440     -2.25617060231247
  H           1.63203406799802      1.30597685931116     -1.91969184704913
  H           0.16186016437493      2.26401548454138     -1.79517143074134
  F          -2.38116403202172      0.62148594007245      2.12563851431385
  F          -0.36388384106844      0.03875309383421      2.59626099472305
  F          -0.80682790880526      2.09379799847250      2.14736557743243
