20
Coordinates from ORCA-job NEB_reactant E -37.786978196680
  C           1.55252339030579     -0.06762660104342      0.09911537433821
  C           1.44598159735344     -1.21702898490119      0.76121688461556
  C           1.63392402764427      0.04971169930433     -1.38093664649975
  H           1.56968178895987      0.85211901094731      0.66624859468728
  C           1.34663693253404     -1.19093329495916      2.27758589159760
  C           3.55477411579146     -4.62089312608286      1.61658001137930
  C           3.41256706666511     -3.41022677944129      1.11221136459183
  C           2.59661490560319     -3.11107671848866     -0.10991348678771
  O           1.35679358391843     -2.45397565352089      0.18755189686192
  H           4.13963943793683     -4.80102063556548      2.50178949167994
  H           3.09214037979576     -5.48096998113272      1.16150768178336
  H           3.87720668422241     -2.55558799782574      1.58636928651041
  H           2.28865086434112     -4.03317294252676     -0.60601834173528
  H           3.17776683508851     -2.49143782867597     -0.80725155405447
  H           1.46245837647003     -0.91203064075999     -1.85606561840413
  H           2.61250714725887      0.43074363643451     -1.67258131680928
  H           0.88701119507069      0.75955715726317     -1.73161513621978
  F           0.41579337345925     -0.32025828264841      2.70904787243280
  F           1.04726304706198     -2.37628638691729      2.80551629948683
  F           2.50346525051894     -0.79090564945948      2.85384145054538
