21
Coordinates from ORCA-job NEB_reactant E -48.331274199960
  C           2.36149903016312      1.21776595879933     -0.14613375490224
  C           1.30511864367641      1.81164485704501      0.41665846069743
  O           3.39583118595231      0.63265447409428      0.53040877341680
  H           2.41016520772974      1.18355273194760     -1.22517039750467
  C           0.22293241103056      2.38343883962298     -0.46737569863970
  C           4.38456316492456      2.36125362603859      2.72451958690464
  C           3.12244913398016      2.72340819778789      2.56455556308193
  C           1.97415593669352      1.77378267242507      2.71087514422709
  O           0.98681690140478      2.00375096179655      1.73055110012718
  C           5.56998946522351      3.20998718077009      2.49546374889184
  H           4.63341018287532      1.34008822186034      2.98679404309861
  H           2.84323529349099      3.73005030962559      2.28134337492842
  H           1.45824591566918      1.96231073723481      3.65892205501666
  H           2.32158496136451      0.73603419941481      2.68719330173829
  H           4.10691044529241      0.41519831985691     -0.08167372456797
  F          -0.97578499649514      1.81047754278517     -0.21223673760384
  F           0.06510033982322      3.70884726304340     -0.23490580738841
  H           0.43642532679175      2.25335567519141     -1.53892124339791
  Br          5.19510103835618      5.09215205813900      2.21158043527694
  Br          6.83392843046671      3.05346762447495      3.99468672468295
  Br          6.48692198158621      2.53507854804622      0.87406505191596
