20
Coordinates from ORCA-job NEB E -40.508507268730
  C          -0.48009564948850      0.80612231425186     -0.26088305200247
  C           0.79329232799555      0.62057357709611      0.35205227492441
  C          -0.57606006403040      1.25521457912145     -1.69681814844154
  H          -1.18279117646058      1.35866383472572      0.35819752524999
  C           2.00243345358600      0.18154136677886     -0.41731388453448
  C          -1.16418852495408     -0.93605602440894      0.02768122959480
  C          -1.09647452658225     -1.10695295201192      1.41981467270194
  C           0.17932022568091     -1.07208568518613      2.02146602741291
  O           0.77645316712399      0.43667444872102      1.62904536229950
  I          -3.11029735115737     -1.15512176177301     -0.80945571220926
  H          -0.46150312568001     -1.48424826340835     -0.58857435822815
  H          -1.95128027135452     -0.82481614800991      2.01641838591842
  H           0.95957473977490     -1.68285835987420      1.57734809040298
  H           0.21054919368532     -1.06668422058843      3.10303069066976
  Cl         -0.16150634399850     -0.01959735722436     -2.85749636448064
  Cl         -2.19873215744186      1.87242205754080     -2.08691651681584
  Cl          0.54050153627451      2.64294956168200     -1.97444458852806
  H           1.84401270192549     -0.82278466231302     -0.81849758795905
  H           2.85686738154852      0.15429910189175      0.25443288752270
  H           2.21992446355289      0.84274459298870     -1.24908693349793
