20
Coordinates from ORCA-job NEB_product E -40.550978803590
  C           1.54200966855423     -1.50383879178245      0.77456657152278
  C           2.95523306709503     -1.85893313087969      1.30837921385343
  C           1.43509100376913     -0.94196593421948     -0.63753921353566
  H           1.19637412396540     -0.69033178060603      1.42930299395577
  C           4.04259854357446     -2.24166893098864      0.35718308356682
  C           0.63112204684910     -2.69957572003946      1.11596615661109
  C          -0.75862201537782     -2.62611462342612      0.59009210451260
  C          -1.80947059831276     -2.47266488627163      1.37544676525491
  O           3.10675188090433     -1.83672762951045      2.50023888472364
  I           1.47541767256527     -4.62406604910864      0.51113513647098
  H           0.61898194814270     -2.76896842034078      2.20529195729688
  H          -0.87777986516269     -2.74640434595211     -0.47672353172920
  H          -1.71334596790958     -2.36899087920589      2.44408211300408
  H          -2.80825574086091     -2.43667606886572      0.97769923923751
  Cl          1.52439345748641     -2.14039130532958     -1.93579147152908
  Cl         -0.12395443822819     -0.06163221859878     -0.81730633165663
  Cl          2.71629297630818      0.27917009481186     -0.89709737377111
  H           4.64222425457797     -3.02728606325475      0.81378823706827
  H           4.69274152347637     -1.37765492451264      0.22115524083681
  H           3.67899645858339     -2.56417839191904     -0.61076977569388
