20
Coordinates from ORCA-job NEB E -48.474716515210
  C           0.90347737874390     -0.08877403691791     -0.83764462625287
  C           0.01580554630387     -1.16089893347840     -0.86107692722059
  H           1.85119324320610     -0.24578818680519     -0.34432221484110
  H           0.96421166401719      0.54748713996014     -1.71173350584862
  C          -1.03296416033871     -1.28440528416956     -1.92219354610120
  C           0.12614206520828      0.97187338098388      0.60156923827070
  C           0.01830061585168      0.05142434373307      1.63565691159980
  C          -0.79549664462238     -1.11707160343089      1.41089419411410
  O          -0.16220141282637     -1.88599495220738      0.21956519999921
  C           1.08737345357342      2.12142422850607      0.78340566283622
  H          -0.76566999938249      1.28648861452710      0.06809736264753
  H           0.82171279336796     -0.01731864795667      2.35503807627075
  H          -1.81337370604149     -0.91084620893174      1.07872593075875
  H          -0.77946338139500     -1.85289560567566      2.20778136734229
  Br         -1.98784402103180     -2.95325760851251     -1.71930602969948
  Br         -2.39795007845345      0.19824665344010     -1.79665467639902
  Br         -0.26658187699982     -1.18704376657489     -3.70663771366978
  F           2.28580848681401      1.72510023386698      1.23439511031370
  F           1.30482948841394      2.78333188365619     -0.36012535252471
  F           0.62269054559118      3.01891835598728      1.66456553840431
