20
Coordinates from ORCA-job NEB_reactant E -48.501843441470
  C           1.94064840634655      0.16682235488144     -0.09462249234651
  C           1.64919704059878      1.41618809855408     -0.42661273347968
  H           2.43447530177292     -0.07530977088610      0.82735914517542
  H           1.69464499158627     -0.65892570049255     -0.73409081688918
  C           0.98430877339262      1.83830532905328     -1.70093996262433
  C           2.25927864200930      4.91387367193092      1.60056428291779
  C           2.72076293466292      3.79372306335118      2.13034072960083
  C           2.56372042071267      2.44144569403581      1.51806253404022
  O           1.90291047727491      2.54878668758664      0.27923001172305
  C           2.43786532630059      6.24731801884501      2.25365330575712
  H           1.72144522522811      4.94836233008503      0.66647618712169
  H           3.25357986707612      3.79895463007082      3.07113353991208
  H           1.98722089499652      1.80251690162096      2.20389213675414
  H           3.55667566827953      1.98793983773535      1.38118479328162
  Br          0.36082097742749      0.39330874899951     -2.80756131354050
  Br         -0.54110948758674      2.98568098642497     -1.26595413128944
  Br          2.26742818665341      2.90795913969377     -2.73681091187384
  F           3.12397252090679      6.18785203741198      3.40469716678800
  F           3.09613881599452      7.10868086397113      1.46068816513574
  F           1.25941501636673      6.82471707712676      2.54171036383577
