20
Coordinates from ORCA-job NEB_product E -48.514352079360
  C           2.12478467050864      2.45787104874601      0.13959131367737
  C           0.86702001265893      2.72298741749288     -0.64607567146907
  H           2.13466580524539      1.38635864767289      0.36698920269588
  H           3.02253046406917      2.68470419725330     -0.44000106972743
  C           1.00182787687024      2.58668627293501     -2.16218109193887
  C           2.12071011116983      3.23204943827443      1.46623220246790
  C           3.12136967023518      2.67047666869587      2.43870635173678
  C           2.80938779499181      2.27651854047213      3.65755573449539
  O          -0.19257275341112      2.99737279540819     -0.16686381870079
  C           2.46341799062619      4.69674677641761      1.19526621426892
  H           1.11375853838509      3.21560725965601      1.89757887417282
  H           4.13762853410885      2.62047693006668      2.07310281560414
  H           1.80144189736790      2.33060906854725      4.03411397758718
  H           3.55290524644651      1.88475204685293      4.32861127562159
  Br          1.82248369598658      0.87731559817811     -2.61056864293778
  Br         -0.73843956396024      2.70112616598120     -2.99149182691786
  Br          2.14008101426693      4.03508272282460     -2.81648153713144
  F           3.70130079856765      4.84175954656898      0.69847786137172
  F           1.63454662362337      5.25873224356086      0.30105445376302
  F           2.39805157224310      5.43916661439507      2.30358338136055
