20
Coordinates from ORCA-job NEB E -37.753989931880
  C           0.67873888303813     -0.34599732489958     -0.98195834394178
  C          -0.59395547435727     -0.94658717552269     -0.98780371368377
  F           1.73290700017800     -1.11777440427484     -0.64154100368396
  H           0.96280988706605      0.33973303526616     -1.77648126463457
  C          -1.71448099388890     -0.29368406469481     -1.74537264351299
  C           0.48054110740998      0.70549142333642      0.58856234931062
  C           0.26715707291441     -0.28016215633377      1.56153213767711
  C          -0.91465317005463     -1.06577283057178      1.42991217554936
  O          -0.87601238805769     -1.77157931580132     -0.01798591555812
  C           1.71572125912932      1.57293548035430      0.68275359303467
  H          -0.36959981281659      1.30863916039139      0.27765344305637
  H           1.13241537563944     -0.71965545015949      2.03465511743364
  H          -1.84721699660962     -0.50935371210608      1.34633730041753
  H          -1.00103937564770     -1.91221227963542      2.10015579354355
  H          -2.42990039908029      0.14806032959477     -1.04841776876946
  H          -2.24984954289633     -1.04569421943812     -2.32192326563182
  H          -1.34057041856145      0.47099893656942     -2.41877594987219
  F           2.85141391192273      0.87000576882675      0.85102413787845
  F           1.87544411460554      2.30381748048548     -0.45230181829114
  H           1.64012996006686      2.28879131861319      1.51997563967853
