20
Coordinates from ORCA-job NEB_reactant E -50.471629237550
  C           1.64236835143036     -0.11703692988094      0.04418368448884
  C           1.53580855749449     -0.13216192791269      1.36537206086527
  H           2.21443056114131     -0.84396296380952     -0.50033047259693
  H           1.14607384714233      0.64229246266090     -0.52927868493643
  C           0.72216838911132      0.90590471717158      2.11648446774640
  C           3.10171365944678     -2.65500390144955      4.17090837052724
  C           3.37843489050847     -2.87845576816872      2.89729694754323
  C           2.87633109845601     -2.04097798125535      1.76838963113989
  O           2.07437317513314     -0.99022799980458      2.26324882121078
  C           3.62400786214940     -3.51880926462604      5.27412808926712
  H           2.48080581859335     -1.83610429379642      4.49816748890494
  H           4.00429378907695     -3.70782123243577      2.59740284512401
  H           2.29307432931311     -2.67259493931168      1.08202934118824
  H           3.73330055791927     -1.63391318735104      1.21148753677338
  F           1.47810033373164      1.60271178850831      2.97561300803040
  F           0.14418771811192      1.79430033757504      1.30164311829231
  F          -0.25872991050874      0.34341178991755      2.83496281791554
  F           4.40112140889779     -4.52316634832790      4.84119836207688
  F           4.36087004762954     -2.81922416715488      6.15310238395463
  F           2.63116551522156     -4.08406019054831      5.98149018248427
