20
Coordinates from ORCA-job NEB_product E -50.478239154750
  C           2.36338372061330     -0.75436552072418      2.28648149080251
  C           1.08106512863358     -0.19512771267254      2.83397577712212
  H           2.30491139925216     -0.67184773935330      1.19536743765790
  H           3.20732094617276     -0.13848512822520      2.61018918073280
  C           1.01914401089596      1.35908448890794      2.70605875487762
  C           2.56442867618506     -2.22523000176882      2.67784869965022
  C           3.45567603581006     -2.94830456101085      1.70457579298404
  C           3.11094288798404     -4.06468431023548      1.09368519107694
  O           0.16511322523983     -0.81062341454592      3.28578398675070
  C           3.19453970690160     -2.29211602237751      4.06935381124754
  H           1.59051147063874     -2.72191381070466      2.74782230974362
  H           4.42341786355303     -2.49398630105843      1.54391994016546
  H           2.15295679034004     -4.53028922232483      1.25467149434196
  H           3.77596482574928     -4.55838059957162      0.40753594721951
  F           2.01317573704508      1.94043546426690      3.39105474647243
  F           1.17167689266082      1.72520341776315      1.42047115835179
  F          -0.12783244081214      1.86583172754530      3.13667947790854
  F           4.43216374235836     -1.77116504931973      4.08600031707767
  F           2.49110884390167     -1.61111543974268      4.98505087191752
  F           3.29753053687676     -3.54872026484754      4.51227361389909
