21
Coordinates from ORCA-job NEB_product E -33.865146248560
  C           0.97083232270860     -2.00314949656927     -1.52065495409976
  C           1.94517319988453     -3.14039959849264     -1.19635403935473
  F           0.99889423961339     -1.01228710972780     -0.57168743568736
  H          -0.05723542253674     -2.38892258145937     -1.54571454052959
  C           2.84105293122800     -2.94015443453805     -0.00894103681632
  C           1.32753146622519     -1.41816090275213     -2.90892610707116
  C           0.36569605466006     -0.33046516566780     -3.30982683237448
  C          -0.37329238112844     -0.38223721068995     -4.40042366817152
  O           1.95253587885339     -4.12061500905888     -1.89595371561464
  C           2.67256189036314     -0.88321997227608     -2.86531148127034
  H           1.30453917388033     -2.24418249036328     -3.62934372913563
  H           0.31824084554254      0.50891868710543     -2.63017324401276
  H          -0.32768772927846     -1.21463366813733     -5.08398995123628
  H          -1.05398158384627      0.41075392290378     -4.65663780617189
  C           2.06337091331111     -3.21737627707675      1.28291840659546
  H           3.21388164606673     -1.91487252752193     -0.00043500566599
  H           3.67791247894790     -3.63477478126892     -0.09096722739348
  H           1.24767500626135     -2.50969810067127      1.40369102298159
  H           2.73090986249403     -3.12153430491181      2.13475372812095
  H           1.65767825249174     -4.22646797778026      1.27065391776915
  N           3.72901095425788     -0.45152100104569     -2.82217630086121
