15
Coordinates from ORCA-job NEB E -27.052206984590
  C           0.92226341152752      1.11559779301288      0.10663113110583
  C           0.74381072037571      0.16456173244779      1.09818005439217
  H           1.67217118404469      0.90609188096198     -0.63616793074899
  H           0.83059113056717      2.14865685354800      0.40098780863259
  O           0.24362048715559      0.55356780373425      2.29203969388834
  C          -0.62361150448366      0.69310298430508     -1.11275813152082
  C          -1.10523831919114     -0.55442038176293     -0.73661374611528
  C          -0.11462271431267     -1.55076043540156     -0.50186277347421
  O           0.70712621125253     -1.10331987802218      0.83647493196386
  F          -1.46401952062179      1.74168549156830     -1.00484278323901
  H          -0.01595004024338      0.80751930889080     -2.00433785703581
  H          -1.97881726444735     -0.56007080926336     -0.09712447863966
  H           0.68041430974614     -1.60824067581651     -1.24059425055667
  H          -0.46424160043009     -2.52897549723811     -0.19585836277039
  H          -0.03349649093924     -0.22499617096442      2.79584669411806
