18
Coordinates from ORCA-job NEB E -42.390864085610
  C           0.80308311756586     -0.11561745212131      0.53987014887426
  C          -0.26811697202036      0.57362501200828      0.91883109874319
  I           3.88794562980400     -0.68348911830578     -1.41602629443219
  H           1.75757272100241     -0.00359558049324      1.02266630098309
  C          -0.25529244890114      1.51412158805901      2.10593186068706
  C           0.69476783494755     -1.06879971548622     -0.62420184003028
  C          -0.69812696145151     -1.40147518658077     -0.88705487000035
  C          -1.69045187770076     -0.32910798765589     -0.75279372115978
  O          -1.50645567885404      0.51798811466803      0.37437638495237
  C           1.09665517701308     -0.25426428869735     -1.83081237653555
  H           1.33610720822724     -1.94061045747260     -0.51546442711635
  H          -0.97182437855309     -2.31999179815274     -1.37614739330974
  H          -2.71361630920208     -0.70922446281814     -0.68296409694725
  H          -1.62795845277733      0.30754460919943     -1.66240071812871
  F           0.97654646578744      1.68364625805633      2.59545145276867
  F          -0.72648445662591      2.72347853305357      1.79336113593999
  F          -1.01041421194161      1.04817666085419      3.11013627699930
  N           0.91606359368025      0.45759527188521     -2.71275892228773
