16
Coordinates from ORCA-job NEB E -37.657729514020
  C           1.06055212233659      0.51416546447886      0.43776051951729
  C           0.31084182476295     -0.07869759174066      1.46208249719190
  N           0.63664480131013      1.82806514605306     -0.03082659724582
  H           2.14272906291515      0.44124498589215      0.49014760217825
  F           1.01684546368156     -0.92199170927595      2.27093140906900
  C           0.46299857586484     -0.60275604073364     -1.09575486002924
  C          -0.91942739593851     -0.50369550759646     -1.00107273693533
  C          -1.55335142598653     -1.03659329496413      0.14226740905119
  O          -0.93402861364220     -0.17692287475065      1.48436740886560
  F           1.07458694233191     -0.02402289463087     -2.13755509852746
  H           1.00053157581603     -1.49736235935597     -0.79153002663156
  H          -1.41419415940661      0.26813166469519     -1.57051194891999
  H          -1.25522209172294     -2.02480422152810      0.47503481748330
  H          -2.61012381348729     -0.83768285396107      0.25152902923139
  O           1.52416672039123      2.62110370930493     -0.22493028639765
  O          -0.54354958922632      2.03181837811331     -0.16193913790089
