16
Coordinates from ORCA-job NEB_reactant E -37.690632472620
  C           1.87215468302676     -0.07684267774089     -0.08158036517746
  C           1.27845378319328     -1.21893202624153     -0.47616103318086
  N           2.02620950721673      1.04944960201645     -0.92412990309183
  H           2.26151680616430      0.02453108611973      0.91737421021407
  F           1.18406992695354     -2.21384802871585      0.42018746472073
  C           0.08030584988563     -3.71859630303133     -4.17298577676142
  C          -0.24345778759295     -2.74189684405839     -3.34674484022173
  C           0.15428901986879     -2.72857520050925     -1.90872234402894
  O           0.78202215813243     -1.46745728838766     -1.65153906388688
  F          -0.30947139359841     -3.71596419977043     -5.44829960718975
  H           0.64697283712700     -4.60562799179762     -3.92416266771940
  H          -0.80313846311288     -1.88795566007623     -3.69565647670655
  H           0.84510795158311     -3.54747420710886     -1.67945458222855
  H          -0.73179187075449     -2.82127195744938     -1.26599400653240
  O           2.59203833610524      2.00864035665839     -0.44099868632022
  O           1.59171865580191      0.99592134009287     -2.05523232188880
