16
Coordinates from ORCA-job NEB_product E -37.696304890840
  C           1.78218040470910     -1.06722017266523     -1.44920574142261
  C           1.16937755085682     -1.41256305319648     -0.11489771170977
  N           1.26459951740709      0.26078569872777     -1.91642024188726
  H           2.87225235751354     -0.97869697146272     -1.34421392407732
  F           1.73136496065965     -2.56051563359018      0.34798994728579
  C           1.46921727212023     -2.17730357138917     -2.49210716201673
  C           0.00663101181376     -2.29289831774921     -2.81103774649678
  C          -0.82618137955801     -3.02597659446510     -2.09691972535940
  O           0.35143393698065     -0.85208232095681      0.50997007310889
  F           2.18426754845531     -1.87727226010424     -3.62540983676554
  H           1.87463112662972     -3.12557685206579     -2.11229871510369
  H          -0.31965504320975     -1.73103232757471     -3.67260454526025
  H          -0.50534256403155     -3.59290429681930     -1.23756017286573
  H          -1.87046788499864     -3.08221405230037     -2.34394919962604
  O           2.07954874641531      1.13708237990350     -2.01303254655298
  O           0.09014243823678      0.33498834570803     -2.14650275125057
