14
Coordinates from ORCA-job NEB E -26.262305866400
  C           0.89292602580210     -0.89131548381271     -0.19007292698287
  C           0.53355716007894     -0.13127505194045     -1.37967289740038
  F           1.95766229496929     -0.38606634321582      0.53101091103246
  H           1.13648468005145     -1.93626848918574     -0.39480444063040
  H           0.12707700695750     -0.66429810428876     -2.23025277076382
  C          -0.38444714714706     -0.75867156195766      0.76471228391328
  C          -0.88418965179021      0.58536276989823      0.82965753018660
  C          -0.02309916395219      1.57913591923286      0.16140320857775
  O           0.03100778557253      1.06771378607631     -1.19959710976929
  I          -1.88683561351881     -2.22795669922766     -0.00782094599678
  H          -0.06857304876544     -1.20689937348451      1.70128811018242
  H          -1.94796340132011      0.74906483317847      0.75986014448595
  H           0.99123669999259      1.65517831229220      0.56356986664100
  H          -0.47484362693058      2.56629548643524      0.09071903652407
