14
Coordinates from ORCA-job NEB_product E -26.305382848650
  C           1.02124098348156     -0.12195701891664      1.69760810813931
  C           1.68045129813303      0.93495928548529      0.82312865550603
  F           1.97331802943497     -0.90108726634973      2.29523528211452
  H           0.41180560890758     -0.78367581423977      1.06523848567809
  H           0.93823672540194      1.48275691085912      0.20938820272982
  C           0.17253166842547      0.56826084342399      2.76293728996921
  C          -0.85428518399428      1.47275573146088      2.18489231605765
  C          -1.02923412577613      2.72259034887714      2.57658139078056
  O           2.84635247144974      1.17492366175585      0.79310098211549
  I          -0.84099368057442     -0.95544270750260      3.96912569847648
  H           0.82672589458105      1.08918195291767      3.46244188025763
  H          -1.49042453008950      1.03222227978934      1.42797207954905
  H          -0.41663331630570      3.16986276736101      3.34188219855421
  H          -1.79199184307530      3.34704902507843      2.14616743007195
