14
Coordinates from ORCA-job NEB_reactant E -26.302870721660
  C           1.92763383526973      0.05041951499034      0.07901708835996
  C           1.10364191544414      0.91788389291407      0.65091775004748
  F           3.03375436584005     -0.41686321874746      0.68150131077669
  H           1.79289412440266     -0.34199372083942     -0.91492707965520
  H           0.23034271830404      1.24838003832159      0.09960262198402
  C          -1.24234795166496      1.10602706820493      4.21416734333038
  C          -0.82282128124638      1.13108609038282      2.96546948344176
  C           0.20541250674967      2.10732439701366      2.46526731027343
  O           1.30808372637702      1.45311553518996      1.87952491371467
  I          -2.68706909579486     -0.24874463653596      4.91512141632354
  H          -0.89443184843640      1.78804800119279      4.97141310480089
  H          -1.18601348316008      0.42206469837895      2.23419024711872
  H           0.61491089654668      2.69628856264752      3.28902271791995
  H          -0.26479042863132      2.78666377688621      1.73651177156370
