22
Coordinates from ORCA-job NEB_product E -45.351322474100
  C           2.06559582484369     -0.58412188131074     -0.76368191675527
  C           1.02175095020724     -1.52662558472504     -0.19061932749386
  O           1.42087495541252      0.64426477499967     -0.97402017470233
  H           2.91711192559339     -0.46136924448846     -0.07936616575450
  C           1.43135277114126     -2.21789486467612      1.12568965322934
  C           2.60976342243824     -1.23965400023291     -2.07151911944910
  C           1.58534895604891     -1.14911214503640     -3.16332333421499
  C           0.97602085016260     -2.19940162726179     -3.67815897736509
  O          -0.04683119977233     -1.72954644952340     -0.67816185670305
  O           3.81112778382316     -0.56616098902073     -2.39096130210785
  H           2.82559624775458     -2.29739380583265     -1.84619288715876
  H           1.36866911214948     -0.14595609244087     -3.49912898780145
  H           1.18221499767087     -3.20108388048978     -3.33716690958451
  H           0.23658282773264     -2.10024372540573     -4.45304976100346
  C           2.29615176835652      1.75012984941735     -1.05280888350395
  H           3.00179673309983      1.64703125598827     -1.88019408105698
  H           2.85717706752646      1.86991990939795     -0.11896533892428
  H           1.65911135596117      2.61785446163946     -1.20988909256506
  Cl          2.99693676047814     -3.02591873975966      0.93693618176849
  Cl          1.56640712211495     -0.93901471926873      2.35230136329612
  Cl          0.21615529981260     -3.39512397637304      1.62216798979718
  H           4.16178446744409     -0.93227852559665     -3.21048707194661
