22
Coordinates from ORCA-job NEB_reactant E -45.366275938000
  C           1.36967578327608      0.06815502432477     -0.11300661917655
  C           1.29967021306358     -1.26897131615620     -0.14449854653912
  O           0.91521757313893      0.87049401948169     -1.10914790901910
  H           1.81602510542724      0.56062429315847      0.73983158506982
  C           1.84161919114873     -2.11109309901420      0.97298726465418
  C           3.09572056009179     -2.84442492285335     -3.42062429129953
  C           2.55591876951131     -1.82052711631249     -2.77281582501445
  C           1.09179141549118     -1.71036289886624     -2.48948302930011
  O           0.78487538828674     -2.05634640393196     -1.13370429186448
  O           4.40681829384462     -3.01832061781361     -3.68054625102410
  H           2.50226561191360     -3.64753913232007     -3.83353556999222
  H           3.18458978007525     -1.04019407174803     -2.36286369694359
  H           0.52798196802453     -2.43876500454698     -3.07435369813542
  H           0.72875421808586     -0.70034610329924     -2.70294088211830
  C           1.10227858697155      2.25328208824121     -0.89787373948982
  H           2.16463786147180      2.50163389892578     -0.81126954325934
  H           0.57910429502898      2.58919345806286      0.00212392112378
  H           0.68253247911053      2.75212073711828     -1.76911192012057
  Cl          3.43006831468719     -2.78723584118003      0.47207622901924
  Cl          2.08406525231402     -1.22943406388512      2.47975689721494
  Cl          0.74987614908979     -3.47302902011298      1.29243233501082
  H           4.92261318994669     -2.31011390727255     -3.27323241879607
