22
Coordinates from ORCA-job NEB E -43.962743475520
  C          -0.42855080387975      0.06305173996711     -1.40393504871312
  C           0.20870388929021      0.81817274776642     -0.48616243325311
  C           0.33755172894643     -0.73474972287787     -2.36030710857032
  H          -1.50214885211595      0.01048059068024     -1.42442041223820
  O           1.55174190764854      0.87184317330334     -0.53963076851322
  C          -0.95859684113930     -1.51029750175415      1.23674604526456
  C          -1.74112386250305     -0.43826632325457      1.13308216619986
  C          -1.25978381965682      0.93617185134723      1.44770312489428
  O          -0.39008852263879      1.55470216372316      0.45770689234337
  O          -1.38923201144302     -2.74581131771929      0.91215680132247
  H           0.06489798929345     -1.42379888074329      1.58964994287542
  H          -2.74854483671931     -0.55578706030308      0.76720211703000
  H          -0.68141127450255      0.93658244698218      2.37996527927317
  H          -2.09598071443466      1.62984718403095      1.54872129195265
  Br          1.55242587925888      0.34598147388787     -3.47880850944092
  Br          1.49965570999940     -2.04538016542933     -1.42884691573306
  Br         -0.82096237917115     -1.74106877061326     -3.54175505007588
  C           2.22977369167426      1.70241941215628      0.38411916307231
  H           3.27553610494711      1.66945361449533      0.08720284421507
  H           2.11956313525165      1.32254081714513      1.40279385910750
  H           1.85522947534216      2.72606798779446      0.33591452373525
  H          -0.67865559344772     -3.39215546058485      0.98090219525191
