22
Coordinates from ORCA-job NEB_product E -43.983726003610
  C           1.41284387169084     -1.15385503082084      1.45366690075869
  C           2.73453264080715     -0.98264254457326      2.19774450953716
  C           1.67555232937027     -1.95663052143231      0.19758632519799
  H           1.04625216649337     -0.16399351392477      1.15902869933143
  O           3.18658256812123      0.25357310203122      2.08937459041089
  C           0.39540492672589     -1.77619129946885      2.47014008853625
  C          -1.01229651044638     -1.76766875465010      1.93619546459700
  C          -1.75781150951929     -0.68315297478649      1.84598263080388
  O           3.25975071313546     -1.86864829036086      2.82261643961898
  O           0.72364439274591     -3.08091804528193      2.82450461294335
  H           0.44064655495067     -1.10883850053298      3.35136156815403
  H          -1.38349550607336     -2.74187795564966      1.65578369534315
  H          -1.39684450217109      0.28843635982855      2.14411843165316
  H          -2.76057782736979     -0.72377087458708      1.46098100640982
  Br          0.10599057642838     -2.06810948254066     -0.94922694121485
  Br          3.05112686508674     -1.01338744620372     -0.85484086076394
  Br          2.33177535607149     -3.74595773225292      0.50047177606298
  C           4.43654680800843      0.55284723669681      2.70593192182113
  H           4.42596731456994      1.61785818553220      2.92268586570575
  H           5.24515675009548      0.31679764668175      2.01248114389989
  H           4.55657099408097     -0.03215316055793      3.61898320295334
  H           1.61358102719766     -3.10691640314620      3.20922892823993
