17
Coordinates from ORCA-job NEB E -38.630747775150
  C          -0.35835340572000      0.47728239925076     -1.32962399119826
  C          -1.11268210145336     -0.70920567601002     -1.40432460446737
  Cl          1.25817309760455      0.46630313839899     -2.00780060386391
  H          -0.85848428409394      1.41556811597847     -1.54599345240882
  H          -2.20074467489553     -0.60977329326493     -1.32811938049979
  C          -0.04515628720178      0.46524926259693      0.54291097065492
  C           0.58731204406039     -0.77102072415557      0.76036863123540
  C          -0.16326993218235     -1.94137502389465      0.49109009601105
  O          -0.57109762569140     -1.83530654447388     -1.10366023795323
  C           0.73214942896120      1.71890243982951      0.87332837826761
  H          -1.07017480811655      0.57974183446171      0.88688544331685
  H           1.66285091830923     -0.81187482259244      0.67006624091003
  H          -1.15499326705639     -2.00191349001465      0.92960240028499
  H           0.37193275046391     -2.88128645085675      0.52628146027322
  F           2.03896709879325      1.63824332236061      0.62878852133522
  F           0.27392770740934      2.80002350409727      0.22440626645266
  F           0.60964334080943      2.00044200828864      2.18579386164941
