17
Coordinates from ORCA-job NEB_product E -38.675810119880
  C           1.89612006049194      1.52514478502018      1.91772339271259
  C           0.43726425413996      1.91315349306369      1.75660321920701
  Cl          1.99899497249169      0.05503113021201      0.88816958840463
  H           2.57104662009773      2.26281786390749      1.47831304939852
  H           0.21826345615936      2.37292043056131      0.77826276792093
  C           2.27035023809052      1.19033482381809      3.36422336770758
  C           3.47509290773719      0.29302332707524      3.45931772231430
  C           3.47120278246398     -0.85882165845695      4.10026406707103
  O          -0.41029211976058      1.68194506423671      2.56408908226354
  C           2.57214921680700      2.49641938373102      4.09921137698452
  H           1.40618030523789      0.73166074359832      3.85888344236622
  H           4.36320428675884      0.66255441218670      2.96604529735371
  H           2.59058597644247     -1.23289561749140      4.59533198324178
  H           4.35081734150631     -1.47557412770541      4.15145390377357
  F           3.65781616757329      3.11373632263606      3.60312079996687
  F           1.57276243226883      3.38615497189240      4.01569094398390
  F           2.80414110149357      2.29459465171454      5.39919599532933
