25
Coordinates from ORCA-job P E -34.536405906710
  C          -1.46259492096047      0.31459853957709     -2.54442517041100
  C          -0.23494258016827     -1.79126310863823     -1.29524892805565
  C          -1.58821282970852     -2.00978514382322     -1.88838786877929
  C          -2.18737219440671     -0.99848018205808     -2.49654230576225
  C          -0.93904096775778      0.66339175360341     -1.13294428672302
  C          -0.19281882061502     -0.50346656612971     -0.44997468601691
  H          -2.04046419275341     -2.98651552541394     -1.81498438467329
  H          -3.15440174706098     -1.08985607967072     -2.96960569076638
  C          -2.32758286089508      1.46243378660238     -3.03514308535194
  H           0.05583990174570     -2.64269620160141     -0.68210753783722
  H          -0.60280066670428      0.23709907957105     -3.21985682855069
  H           0.49237008165966     -1.69487459448311     -2.10803225581643
  H          -1.78570385752254      0.96379375120488     -0.51031418566654
  H          -0.69479796213822     -0.72220497124917      0.49858564175139
  H          -0.28016551470506      1.52857135257109     -1.21934880867118
  C           1.25257103670966     -0.09884122399603     -0.13575646813344
  O          -1.96703743311987      2.27846313987279     -3.83267021164109
  O          -3.55002714761737      1.52728878445440     -2.47832219854658
  H          -3.70335388319853      0.79037833677383     -1.86966884377779
  C           2.01657867394618     -1.14405683434158      0.66934897070016
  H           1.23227199579697      0.83226875787229      0.43561650653077
  H           1.78118677152952      0.09744885550654     -1.07138756820236
  H           1.46999735920674     -1.40322890759579      1.57369780484172
  H           2.98873031050217     -0.75254306105865      0.95934912903978
  H           2.17790144823552     -2.04952373755009      0.09075326051923
