25
Coordinates from ORCA-job R E -34.447510769750
  C          -0.89484764741300     -0.64715618171130     -3.09579688862667
  C          -0.65672799810606     -3.43764210551878     -1.97949440692295
  C          -1.69645983331159     -2.62226190649429     -1.83178457745829
  C          -1.72276415895640     -1.22426753730290     -2.21782473040915
  C          -1.59476706379071      1.19978521410336      0.46464687816719
  C          -0.58822149651759      0.34171865670282      0.49806831655029
  H          -2.59954352099826     -2.98952290891682     -1.36151750045434
  H          -2.51340132817494     -0.63962110133950     -1.76100365526244
  C          -0.96357162167542      0.77582500241329     -3.50017623239111
  H          -0.69557530814127     -4.46399793058915     -1.65900305071058
  H          -0.16730570845543     -1.22425535438914     -3.64597465380342
  H           0.27024221182675     -3.10507979115681     -2.41461981668460
  H          -2.62320602065413      0.88048152136807      0.51510173629038
  H          -0.77761849578011     -0.72401133122348      0.54613488653168
  H          -1.42731330301118      2.26447353589389      0.43559769249161
  C           0.85515785456382      0.72550440538017      0.46749418249745
  O          -0.62197359937010      1.15212103403567     -4.58984645356745
  O          -1.42890635224940      1.64510807716019     -2.58710616644690
  H          -1.55055338773367      1.24882900335585     -1.70516561719545
  C           1.60272871607238      0.02642522816311     -0.66714833639946
  H           1.30931147330285      0.43365762036164      1.41937320362879
  H           0.95201370641461      1.80750803493707      0.36480898668093
  H           1.47610711475565     -1.05220691968060     -0.59992413773997
  H           2.66448137800780      0.25336738961329     -0.61517996967663
  H           1.22961438939540      0.35885834483434     -1.63299968908890
