25
Coordinates from ORCA-job TS E -34.442877031830
  C          -1.71736518274763      0.60885049200662     -1.65929560465004
  C           0.27683964136196     -1.59973650775114     -1.16043805735381
  C          -1.04534597272886     -1.70658533518830     -1.07698945100196
  C          -1.99585934283094     -0.68759742294063     -1.47827701903919
  C           0.56964927447419      1.68569249109437      0.96676553851172
  C           0.91707777748235      0.45541352381384      1.28872321782723
  H          -1.48447298640388     -2.62612801166345     -0.71118910664173
  H          -3.01322215726491     -1.04944809033981     -1.59749040627126
  C          -2.69408697983766      1.65423157845522     -2.03066834074047
  H           0.92275859966300     -2.40403133448926     -0.85462741907621
  H          -0.73727568575826      1.00686695962461     -1.44259274696481
  H           0.75735486570834     -0.71633674448128     -1.54412939251253
  H          -0.45906463968770      1.99322124206530      0.87761855205578
  H           0.16287534584102     -0.29797960365286      1.48059466000839
  H           1.30889457049065      2.44415481543781      0.76463529939668
  C           2.33288358540626     -0.00981237671446      1.42230373365985
  O          -2.50916202410907      2.81803535668075     -1.79705764051053
  O          -3.82055423930163      1.25231523601512     -2.65234757197959
  H          -3.82758568558015      0.30078507134502     -2.81507634902910
  C           2.57960824383944     -0.68121567717580      2.77120212001426
  H           3.01107262386494      0.83638340001983      1.29883450758192
  H           2.54442598080973     -0.73170661488745      0.62941422834804
  H           2.37841007562793      0.01325587226858      3.58298123059467
  H           3.61242826446138     -1.01320648149548      2.84767500008073
  H           1.92971604721950     -1.54542183804715      2.88943101769196
