19
Coordinates from ORCA-job NEB E -30.464434908090
  C          -0.09064714443929      0.22175863212668     -0.12233146061513
  C           0.38930406275853      0.23855356642776      1.23190295769039
  C           0.02442161978454      1.36454047318817     -0.98773264210166
  H          -0.17668570085478      2.11825090649959     -0.19446383114562
  O           0.74126829775669      1.49311615800440      1.64403535852304
  C          -0.98269353608563     -0.87892560922349     -0.59268901849630
  C          -0.80388016879744     -1.16344860471836     -2.04800477866084
  C          -0.76734540924898     -2.36854931058667     -2.58211092306985
  O           0.51641561796474     -0.74903974930459      1.92532958015944
  H          -0.72943801556171     -1.74621700772873      0.02603660994309
  H          -2.03898254226901     -0.64984414877809     -0.38752247706701
  H          -0.68677727611221     -0.27923087862214     -2.67420776388683
  H          -0.86704559656645     -3.26050838869732     -1.98504774564915
  H          -0.64203927209571     -2.51406241037860     -3.64076706485553
  N           0.06250020651112      1.68179369572520     -2.14894981159834
  C           1.39219910298196      1.59951470507327      2.90023146639527
  H           0.96431971992443      2.45481899766749      3.42107173126860
  H           2.46111611266162      1.75350597946119      2.74146515803835
  H           1.23398992168757      0.68397299386427      3.47375465512809
