19
Coordinates from ORCA-job NEB_reactant E -30.540807503800
  C           1.70390953581846     -0.12425068210005     -0.00665334111101
  C           1.59400658980992     -0.92707005251834      1.07628943171928
  C           1.40268197611470     -0.42086870965664     -1.33390809540621
  H           2.06983040687978      0.87609198027689      0.17206463297970
  O           1.95200898715632     -0.39790043279765      2.26097345202982
  C           2.28811801553986     -4.75072418892274     -0.90600837452047
  C           2.06866969041826     -3.47136117478000     -0.67280256622238
  C           0.84046623015780     -2.95247372300476      0.01343611988758
  O           1.15512351251570     -2.18983466219869      1.17376508331719
  H           3.17422346430121     -5.08904542079508     -1.41398012907544
  H           1.58283982363793     -5.51120193906977     -0.61315424891578
  H           2.78229710194984     -2.71858447603263     -0.97611274731616
  H           0.23274777263736     -3.77922984215887      0.38988994624325
  H           0.24263056887242     -2.35122428842358     -0.68061504024017
  N           1.18243866574881     -0.60051804515750     -2.44936986736875
  C           1.84196815468005     -1.21128814524589      3.41436095482366
  H           2.19689007083423     -0.59383735960097      4.23655217619818
  H           2.46006121269779     -2.10760880315592      3.32502681099204
  H           0.80548822022956     -1.50817003465780      3.58954580198566
