19
Coordinates from ORCA-job NEB_product E -30.567359430080
  C           1.64697508301169     -1.72824141562833      0.27610281834110
  C           2.30417410253880     -1.71540682029416      1.65874239079525
  C           2.43774514401388     -0.85518878390730     -0.56026629044914
  H           0.64057908826549     -1.30396622774201      0.36040460805261
  O           1.92337622346634     -0.63719998541389      2.34077038454973
  C           1.60339417075617     -3.15441588179860     -0.30358059555572
  C           0.96789647373715     -3.16869327922917     -1.65785415199439
  C          -0.12228865418113     -3.84942265625163     -1.95518410033587
  O           3.06124569657866     -2.55161696725754      2.06318467297907
  H           2.62859717379108     -3.52960045132363     -0.36532124407975
  H           1.04937677985243     -3.79468402885511      0.38541242891146
  H           1.46375931581923     -2.56395676580397     -2.40606269478506
  H          -0.62967627464629     -4.45659520225549     -1.22280807394363
  H          -0.54890273445266     -3.83854214522686     -2.94309225717611
  N           3.08283439802197     -0.17855446451828     -1.21715569951073
  C           2.50372802519743     -0.46846662556132      3.62956655985228
  H           2.10610645339328      0.46429644302345      4.01990196991045
  H           3.59104450338665     -0.42014273202593      3.54980895661499
  H           2.23293503144984     -1.30440200993024      4.27733031782345
