20
Coordinates from ORCA-job NEB E -31.696966330230
  C          -0.71105272582238      0.22836590205671      1.58568398355464
  C          -1.99859811795470      0.51270351212748      1.17061240013745
  I           0.53729203911196      1.90538690621530      1.98227159257967
  H          -0.54980377777277     -0.54734983615646      2.32092826850243
  I          -3.41336240778454     -1.13179431831190      1.49380330951423
  C          -0.03177503174871     -0.57867611533029     -0.14773464557738
  C          -0.34941840180235      0.44641173347453     -1.03259492661632
  C          -1.70203629132945      0.77105946923280     -1.26432598136754
  O          -2.27563498829911      1.32119306708215      0.25481740572065
  C           1.39021949908195     -1.02530515212392      0.10860921756562
  H          -0.73686354547698     -1.40478066864484     -0.09574511008424
  H           0.38986498067507      1.20486300029884     -1.24206275574573
  H          -2.40538476721102     -0.04613038797576     -1.39414674956413
  H          -1.91776261110515      1.63033827246690     -1.88397486851500
  C           2.47063558114090     -0.19265953595163     -0.57165045073136
  H           1.46664607357173     -2.05632489430619     -0.24946722936037
  H           1.58929256437566     -1.05598020418938      1.18248537687299
  H           2.32738418244272     -0.18553545378022     -1.64951320305314
  H           3.44427892429089     -0.62725932795139     -0.35879175310271
  H           2.47607882161626      0.83147403176727     -0.20920388072975
