20
Coordinates from ORCA-job NEB_reactant E -31.722685136330
  C           2.05987467371907     -0.70479477688399     -0.09503400237620
  C           1.29701521334222     -1.39811900667916     -0.92401430661635
  I           3.41099935897879      0.85473517571117     -0.53022381484268
  H           2.01846487429499     -0.89782473736859      0.96061172315414
  I           0.03654069970680     -2.87649843072382     -0.03590097081924
  C           3.72900427666262     -2.47736031592640     -2.59053693104543
  C           3.36330858778687     -1.32005992255528     -3.11675709014589
  C           1.94950527626035     -0.81763202845002     -3.16508623458514
  O           1.07593389768745     -1.44353163880919     -2.23234740616871
  C           5.12326421542494     -3.00931943554624     -2.49813923158367
  H           2.97907903073893     -3.13681318416449     -2.16800837870005
  H           4.07998907334222     -0.64624534102218     -3.55930854613165
  H           1.49600531410227     -1.05221075555141     -4.13513939606584
  H           1.92320574097689      0.27036255483318     -3.03624747791316
  C           6.20459593573117     -2.07828843241175     -3.02838732069267
  H           5.15810759845494     -3.96024724874462     -3.03958696480650
  H           5.32626201274737     -3.24071908228631     -1.44735665408809
  H           6.05794286411350     -1.87901664656128     -4.08717761543872
  H           7.18215082655633     -2.53662896173875     -2.89989507965808
  H           6.19615052937229     -1.13408778512085     -2.48886430147607
