20
Coordinates from ORCA-job NEB_product E -31.741102270940
  C           3.17644756735110     -1.35150672820361     -0.82506564228349
  C           1.71754300429251     -1.31544834598094     -0.55264597207680
  I           3.89644532387752      0.68766000026673     -0.65205369396263
  H           3.69678587343501     -1.92653158763238     -0.05834747655965
  I           1.00600478566629     -3.25569823071442      0.16982122946737
  C           3.40627170434890     -2.00058926861434     -2.21087623139936
  C           3.17388616824582     -1.02007869761707     -3.32422308140702
  C           2.02800825685107     -0.90651756564463     -3.96841890564003
  O           0.94169251373031     -0.44546117981712     -0.70998058608698
  C           4.76759506080848     -2.70831385744880     -2.31261588939003
  H           2.64640560157976     -2.78953947025500     -2.30347745259131
  H           4.00896558927823     -0.38333682474831     -3.57798090863195
  H           1.17641392564710     -1.52806764411711     -3.73994949549838
  H           1.88888727829365     -0.18362283412374     -4.75305668646447
  C           5.99515537807396     -1.84764559537233     -2.04335202952551
  H           4.83343891613224     -3.11789977411213     -3.32355477861766
  H           4.76775411884364     -3.55302922313545     -1.61833225808188
  H           6.01660199747080     -0.96803949595548     -2.68091921378040
  H           6.89127116683591     -2.42967117209325     -2.24590304414389
  H           6.03912576923770     -1.52486250468061     -1.00606788332592
