18
Coordinates from ORCA-job NEB E -40.264559824170
  C           0.99528619037910     -0.03483628473395      0.78101844199681
  C          -0.29075804336180      0.45124281084889      1.05381816203860
  Br          2.44095077549534      1.21247110023279      0.69361452267474
  H           1.31887720794523     -0.94279866203569      1.28169180173938
  C          -1.24830265623842     -0.43503589887697      1.82209533340216
  C           0.81318079019972     -0.56177170788763     -1.14176315406964
  C           0.28862777851694      0.62919531127504     -1.66761425314308
  C          -0.97634267876347      1.07904832193364     -1.28743200258559
  O          -0.77378683822580      1.44855129381080      0.43818177138132
  O           2.07181700762107     -0.88912088068195     -1.50696043607785
  H           0.13428733207304     -1.39399606460703     -0.96408349339913
  H           1.00779202383620      1.33247517129980     -2.06199075544027
  H          -1.77544110537600      0.35724779274884     -1.16975308654253
  H          -1.30263424627113      2.04449101307331     -1.64272774293084
  Br         -0.72495942324277     -0.44879269770339      3.71437051195809
  Br         -3.05016186784285      0.24317362000736      1.65837400655735
  Br         -1.24529714587441     -2.31709013694972      1.21383713430503
  H           2.31686489913002     -1.77445410175414     -1.21467676186456
