18
Coordinates from ORCA-job NEB_product E -40.297992862930
  C           1.89598609979161     -1.44758070338606     -1.52736331090446
  C           0.65879706012934     -2.19276159455820     -1.10275263997424
  Br          1.57865891101678      0.45365499213750     -1.31242071218190
  H           2.77509394295119     -1.70033582113950     -0.93275541955922
  C           0.86577324938715     -3.24382969942246     -0.02751365215022
  C           2.12841566394435     -1.79117138220535     -3.01392776707347
  C           3.46013933144174     -1.27342748523357     -3.46923064965436
  C           3.60841531568311     -0.18570469377372     -4.20091409734075
  O          -0.43227383282374     -1.98503554684011     -1.54165746649530
  O           2.04050071631147     -3.20040478497114     -3.06006898843800
  H           1.31199437882580     -1.33901542890268     -3.59974976767309
  H           4.30548171365440     -1.85853172557267     -3.13206870809712
  H           2.76379258506759      0.39870856305600     -4.52691303218706
  H           4.58068316750183      0.16888211479037     -4.49386842538737
  Br          1.17217977446099     -2.19712535352711      1.60502884195385
  Br         -0.72742537527672     -4.30593519435193      0.16975842121505
  Br          2.38274871943431     -4.39109531983167     -0.33315065900592
  H           2.34153857849882     -3.51689093626771     -3.91933196704640
