18
Coordinates from ORCA-job NEB_reactant E -40.297947807160
  C           1.68804602076204     -0.18703863638106     -0.11896248716838
  C           1.84790684810085     -1.45170032080880     -0.50982664046418
  Br          2.34630323363244      1.37184761827797     -0.96251464471741
  H           1.15438819617876      0.05082367773294      0.78524107376938
  C           1.28090775209255     -2.59197100534186      0.29151897198479
  C           1.98977311215534     -2.52780348138147     -4.80131701277334
  C           2.89952066373503     -2.26443513925612     -3.87062940732551
  C           2.68249179224908     -1.25924444786154     -2.78939024938144
  O           2.43269827340042     -2.00025795251404     -1.58680592376915
  O           2.10599749282754     -3.42913553081254     -5.78910461949341
  H           1.04858745983549     -1.99848029522599     -4.86059853938068
  H           3.82525853179259     -2.82029916738820     -3.82473389482922
  H           1.81866146798347     -0.62912424292796     -3.01957027704428
  H           3.57281297224572     -0.63709348258969     -2.65145018143796
  Br          0.69645602652054     -2.16613623018857      2.07814473896942
  Br         -0.25469620810129     -3.31114306009349     -0.70945321824679
  Br          2.62078126943181     -3.99677957516222      0.41726706051054
  H           2.94270509515760     -3.90732872807738     -5.71431474920239
