24
Coordinates from ORCA-job NEB_reactant E -36.384854006960
  C           1.22132684290876      0.16808203518485      0.10331415735783
  C           1.28408095370639      0.74361704706063      1.30476150966276
  O           1.01637719441598     -1.17618328269352     -0.08875879670085
  H           1.32330334564059      0.77823245002514     -0.78315403856421
  Cl          1.46678680282120      2.46520451778404      1.35913564608932
  C           3.99802640279259     -1.54148532287092      3.58105316669819
  C           3.17109276315254     -1.17124302017399      2.61798953151163
  C           1.68309176936090     -1.09266312263216      2.76680910083186
  O           1.18679762426529      0.22972590365844      2.54641012383804
  C           5.48249381098844     -1.63894800719928      3.43997230347994
  H           3.60428637260216     -1.82870609572148      4.54787512902836
  H           3.55234335699071     -0.87816560879557      1.64859555494473
  H           1.38008380689758     -1.32229990674059      3.79015672374272
  H           1.19504461959460     -1.78628835277866      2.07213306034636
  C           1.33637626079610     -1.63602557860900     -1.38132782774706
  H           2.40860746429123     -1.54259680068111     -1.58396565404816
  H           0.77805496463716     -1.08705874600571     -2.14648507101487
  H           1.05306946445898     -2.68645113011512     -1.40941968798679
  C           5.96684816251814     -3.06621428674795      3.69540782888502
  H           5.95210194348832     -0.97027044882060      4.16687804814119
  H           5.78330023884222     -1.31922078331904      2.44086842984140
  H           5.68889597227222     -3.38982981468410      4.69590346685495
  H           7.04877071490065     -3.12230259502754      3.60282230269845
  H           5.52133914765726     -3.75070905009677      2.97712499210917
