17
Coordinates from ORCA-job NEB_product E -34.444579219910
  C           2.09299541179862     -0.14286811757217      2.34835222622048
  C           2.24274165221145     -0.55873859525556      0.89886969131472
  Cl          0.52796561891547      0.74819615347115      2.33217013205841
  H           2.85984404606719      0.58166450460307      2.63419410036773
  H           2.40788964844299      0.30091629129344      0.22494969747789
  C           2.05844699707377     -1.32786614695758      3.30951177989678
  C           3.39645414346572     -2.02205828723509      3.29589400594857
  C           3.55522171040199     -3.29254286251015      2.98391397503339
  O           2.13541993839010     -1.67636360886673      0.49458847609483
  C           1.73812212385566     -0.85400437742079      4.73195485555630
  H           1.27469370503420     -2.02727427000155      3.00385378328387
  H           4.23364170025640     -1.40489660210050      3.59186332105749
  H           2.72625676042596     -3.91439246581732      2.69196847166616
  H           4.52456014476796     -3.75877216799277      3.00052118261446
  F           1.70742821103222     -1.90195921337631      5.58415683845869
  F           2.70159902729837     -0.01699860217427      5.18931280250295
  H           0.77461916056192     -0.32784163208687      4.80952466044725
