21
Coordinates from ORCA-job NEB_reactant E -55.523598984110
  C           2.06584551195016     -0.16064781578082     -0.64158894943778
  C           1.54788029050433     -1.37776583714356     -0.40427099152690
  N           1.77531636035522      0.71105393949800     -1.73474684856786
  H           2.80370298553734      0.24517574223255      0.03522107428090
  C           1.95561668130142     -2.08829955016270      0.89385852087768
  C           1.81262066441957     -1.17897141138864     -4.40891929880619
  C           1.69593580715981     -1.91690298241455     -3.31368534686454
  C           0.46690267247102     -1.98966046809182     -2.46783046267510
  O           0.77142290240071     -2.20204230629998     -1.09390142159855
  N           3.02697447134794     -1.20585944842471     -5.18735589049471
  H           1.05021281106596     -0.52791571776989     -4.80916249151431
  H           2.53478586106830     -2.53008894358123     -3.00032822081152
  H          -0.11293051626668     -2.87816610317588     -2.74105807139798
  H          -0.15466463675628     -1.09490208563157     -2.59741682605855
  O           2.68676224575534      1.38698304965709     -2.14713806451079
  O           0.63528278502251      0.74212958675069     -2.15651195126663
  F           0.89580997543919     -2.59719085445815      1.51762891504044
  F           2.79071343434337     -3.09898289474689      0.63225372456200
  F           2.57437406776666     -1.27837840981970      1.75289987463494
  O           3.95461473398891     -1.85702005902912     -4.76442848682923
  O           3.01982089112522     -0.57264743021913     -6.21511878703531
