22
Coordinates from ORCA-job NEB_reactant E -46.282224174520
  C           1.36089822897391     -0.50743265731717     -0.04805248609636
  C           2.01360864997672     -1.62946140849789      0.30370474267740
  C           1.92853981952399      0.60067673704740     -0.83009706022852
  H           0.33864491615856     -0.35315403081762      0.26078272584874
  C           3.42531584525775     -1.96525690631541     -0.04939240262347
  C          -1.13201721691082     -3.92260743595741      3.12315751146113
  C          -0.21247454726687     -3.80177433451704      2.17521920969639
  C           0.11994850896777     -2.53538790197354      1.46390038651791
  O           1.46036322982460     -2.62200877587076      1.02825552229427
  N          -1.40178566366829     -5.19621370501190      3.73309596472683
  H          -1.74127393045885     -3.12178726848244      3.51379618929489
  H           0.34974994630854     -4.67568453328550      1.86838255226399
  H          -0.02335534900385     -1.66660253055857      2.12001118799033
  H          -0.55311806796696     -2.43275291073539      0.59721359429914
  Br          0.56468908158694      1.95341731763625     -1.18276524005094
  Br          3.41722221460322      1.53635678895605      0.11962881562263
  Br          2.64251548463965      0.04873607130995     -2.59107637226705
  H           3.73335994317700     -2.82408265920201      0.54055946309222
  H           4.09685460733934     -1.13372388670526      0.14954421934100
  H           3.50387172059445     -2.22342552963852     -1.10461512323567
  O          -0.78515983777965     -6.16094885831049      3.34232708141340
  O          -2.23929758387715     -5.20538158175274      4.60681951796174
