34
Coordinates from ORCA-job P E -36.916845207790
  C          -1.47880283450952      0.26086924839219     -2.20961617831066
  C          -0.41696750543911     -1.88062915636823     -0.81419856084176
  C          -1.85030957085440     -1.92880080327341     -1.23633969571604
  C          -2.35434988221960     -0.92784197712784     -1.94001253841266
  C          -0.87351811584965      0.63613494530517     -0.84473330375732
  C          -0.00433192668444     -0.49598642944687     -0.26754282064844
  H          -2.43082971121140     -2.80252151797783     -0.98024448457929
  H          -3.37980374176415     -0.93208986853090     -2.27151762678434
  C          -2.18901982356939      1.42151241112617     -2.94322121850031
  H          -0.20961759917381     -2.65146406132822     -0.07197988518527
  H          -0.65001242253532     -0.06254964698941     -2.85426401925714
  H           0.19757666112195     -2.09677805416590     -1.69529574842871
  H          -1.69375566625443      0.84544983558553     -0.15651349727099
  H          -0.14480849371945     -0.50660750376891      0.81869569694977
  H          -0.26723793208128      1.53687096464999     -0.92887512125516
  C           1.48139975091930     -0.22881474220522     -0.53954984881666
  C          -3.35904021657447      1.97907158932456     -2.12971568824703
  C          -1.19657615698413      2.55603150456138     -3.22595916875658
  C          -2.70536484139545      0.91033433450787     -4.29425443086522
  H          -3.00685557744569      2.44119994974869     -1.21097905569552
  H          -4.06653411965439      1.19608767138203     -1.87002265204868
  H          -3.88594612242555      2.73578577250336     -2.70750196858867
  H          -0.89040586027588      3.05559466695712     -2.31079525046579
  H          -1.65819120671773      3.30077491456448     -3.87100009649136
  H          -0.30860373888431      2.17586607992305     -3.72682303138138
  H          -3.44754017327992      0.12731722368187     -4.16887501719865
  H          -1.88600123154032      0.50938706072456     -4.88749583591469
  H          -3.16530479802876      1.72286118205719     -4.85299226583423
  C           2.40546498429999     -1.24958807192262      0.11493530552710
  H           1.73480234415540      0.76296412666766     -0.15627014840539
  H           1.65429605175682     -0.21920962283214     -1.61855343960308
  H           2.22251769568364     -1.29355778974367      1.18666408138592
  H           3.44537776102318     -0.97161237829862     -0.04279988760523
  H           2.25371402011225     -2.24255185768309     -0.29978259899653
