34
Coordinates from ORCA-job R E -36.828921718790
  C          -1.65871196921153     -0.20514147353416     -2.95644048134028
  C          -0.55712116990857     -2.86773203095400     -2.01843727961013
  C          -1.68698885194525     -2.28876440190592     -1.63174444977922
  C          -2.08755002846737     -0.92020050857207     -1.91954810812720
  C          -0.88252386553055      0.99717837605215      1.32724764695366
  C          -0.24748806374124      0.06085009745449      0.64789128547309
  H          -2.38372601755735     -2.85074076590809     -1.02180081807632
  H          -2.79720845501680     -0.49713483334492     -1.22261025055903
  C          -2.04295437528378      1.20553025117732     -3.31113962934454
  H          -0.32780868509758     -3.88906356443240     -1.76716022946176
  H          -0.98382481140952     -0.66656993733067     -3.66691077546334
  H           0.18657214745711     -2.34350909736580     -2.59328585396000
  H          -1.71043929886376      0.77040649839507      1.97837253106424
  H          -0.55046431677653     -0.97546801793750      0.73077507082461
  H          -0.60115369116191      2.03784363255054      1.26325167955587
  C           0.90271455375914      0.30587718749861     -0.27562511233158
  C          -2.80028008843488      1.91399801073382     -2.18818098787394
  C          -0.76327821139489      1.99149466814157     -3.62559164735435
  C          -2.92216693382955      1.15367775530423     -4.56834322018637
  H          -2.20872657029030      1.92276512716381     -1.27554550012648
  H          -3.74999853747457      1.42370660149135     -1.98825987231711
  H          -3.00614933220249      2.94310762359985     -2.47600963862489
  H          -0.13480418737629      2.05928556851479     -2.74210406915124
  H          -1.01053602618454      2.99915216051880     -3.95016511372568
  H          -0.19567750360118      1.50666584548099     -4.41708247673395
  H          -3.83088739577896      0.58749420386070     -4.37168607848839
  H          -2.39008186739234      0.67506845891552     -5.38732145679797
  H          -3.19972293699289      2.15958777277268     -4.87872703122750
  C           2.08890213007288     -0.59537770732324      0.06238328422653
  H           1.20340476938798      1.35496853873413     -0.22665073431052
  H           0.57514790889409      0.09064257499142     -1.29694216238297
  H           2.43474568777411     -0.40503723947480      1.07519470759054
  H           2.91373684584619     -0.41573586099227     -0.62485414163299
  H           1.79826914773310     -1.64065551427598     -0.01200908670077
