17
Coordinates from ORCA-job NEB_product E -37.565277771170
  C           3.25509476074041      1.52720864011864      0.60679400416977
  C           1.78522323448084      1.43419795926322      0.33989970586144
  Br          3.95694760262367     -0.30011339837413      0.63068652691072
  H           3.75367916712245      2.04757654922785     -0.21734789284283
  Br          1.05538765459553      3.19433236602374     -0.17318056662162
  C           3.50543497061532      2.29097069108217      1.92416579433686
  C           3.04577949530591      1.50705844681267      3.12225720825839
  C           1.97226564108493      1.81864219858574      3.82208798874719
  O           1.06166117799949      0.51108311776606      0.40493651382785
  C           4.98077544751490      2.68636915919192      2.06509738283962
  H           2.95128037922778      3.23621136509864      1.86016759189022
  H           3.64782329238668      0.64379130932910      3.36864726296375
  H           1.36001396283891      2.67416927063335      3.58502154914141
  H           1.66038848341345      1.22653841213616      4.66386775059671
  F           5.80050150729484      1.62063508510858      2.13230195965816
  F           5.37600642353554      3.40688569601383      0.98748457512322
  H           5.14773679921937      3.29934313198246      2.96441264513915
