15
Coordinates from ORCA-job NEB E -26.106166419780
  C           1.03195436791239      0.02996315379973     -0.73680804197651
  C           0.78347599117331      1.26347041327410     -0.10505186470962
  O           0.31549394157366     -0.32997045657766     -1.86730487080517
  H           2.07689471601473     -0.29398734246519     -0.75639613853708
  H           1.52212655748234      1.60867362830616      0.62575245036463
  C           0.17587557641423     -1.09496925484050      0.48046728227471
  C          -1.13641193362531     -0.61391150971064      0.46873558665547
  C          -1.33400957323203      0.70892116321821      0.95521785635994
  O          -0.44074877869256      1.67563987179171      0.00958259998484
  I           0.50984208080558     -3.05724727043075     -0.26776393575614
  H           0.78101746006037     -0.94191780582749      1.36535382345848
  H          -1.81603189637984     -0.99046124825220     -0.28019051192411
  H          -0.91006956682036      0.93325581524995      1.93193993017589
  H          -2.32936660889209      1.11822402306005      0.83219455876958
  H           0.76995766620559     -0.01568318059549     -2.65572872433490
