15
Coordinates from ORCA-job NEB_reactant E -26.140666815960
  C           1.87380759242403      0.02983783438274      0.03654732868022
  C           1.25963827395444     -0.26376789266198      1.17857089200838
  O           1.86092693438453     -0.79493969371352     -1.05493158027030
  H           2.41205343345756      0.96341766990528     -0.04367027504393
  H           1.30487663553217      0.43150850429107      2.00587531983594
  C          -0.72944268057730     -3.69228979877035      3.67498492291750
  C          -0.78951627129632     -2.85645798242079      2.65862228426660
  C          -0.06217021135811     -1.54761553574713      2.62917408861051
  O           0.56152687686870     -1.42402888811135      1.37346113923053
  I          -1.78478606880644     -5.50781359341445      3.72962303653104
  H          -0.15652399950513     -3.50920877890499      4.56838754847051
  H          -1.36169227672909     -3.07368933993187      1.76917779844073
  H           0.67664268361099     -1.49261104415664      3.44309345431608
  H          -0.79133794663961     -0.73117029851540      2.77284263526534
  H           2.37219702467958     -0.40337116223061     -1.76835859325914
