15
Coordinates from ORCA-job NEB_product E -26.152392308320
  C           1.45929522373686     -1.61644728189961      0.95412401773951
  C           1.30002865473830     -0.11690187982923      1.09083230511503
  O           0.89228941488103     -2.06948506163619     -0.23295069689275
  H           2.53581627966300     -1.85241340272816      0.95530496721244
  H           1.77076443923816      0.32549956295347      1.98401780588964
  C           0.80725630578438     -2.26608876962804      2.18898959634671
  C          -0.63909157732045     -1.94480893491975      2.28422050115651
  C          -1.20595754927668     -1.43918544528570      3.36462278826729
  O           0.68891312458759      0.53330764453227      0.29032782812166
  I           1.04912537753362     -4.42722418929030      2.02883213853520
  H           1.34531599638780     -1.98053427625174      3.09310509981498
  H          -1.21635997052159     -2.16108292676846      1.39569211495058
  H          -0.64350143285246     -1.23429607026230      4.26141681326964
  H          -2.25675178963331     -1.21148385962971      3.39606848872106
  H           0.43425750305375     -1.32055510935656     -0.64850376824751
