28
Coordinates from ORCA-job NEB_reactant E -41.907543492800
  C           1.18788502007534      0.07358570280527     -0.19354463068696
  C           1.18474652182530      0.18511816505115     -1.54396215344237
  N           1.44158809374171      1.05368130113128      0.78121230874079
  H           0.95417545238999     -0.88603312937438      0.24179334905679
  C           0.70091694384512     -0.98650724433016     -2.36271161125835
  C           4.43228541822514      3.01167715064291     -3.21821026645432
  C           3.13410351118414      2.81563224447278     -3.06273227983574
  C           2.51959566109965      2.16896750112390     -1.86236457573554
  O           1.63748878030013      1.14848233096562     -2.32698453973521
  C           5.05713822790099      3.67620565816953     -4.40146040806798
  H           5.12437039961686      2.68342296156493     -2.45265311422734
  H           2.42772209201184      3.13121831971704     -3.81720775911021
  H           1.95884025296543      2.90715777413052     -1.27197175037994
  H           3.28757382463149      1.72561240776205     -1.21647802405705
  O           1.84085099157563      0.66561909286345      1.86581502880152
  O           1.19626832563312      2.22486271297194      0.52602923062413
  C           1.87569100773783     -1.89599921124775     -2.72846599214369
  H           0.25352644490239     -0.59433011606636     -3.27643903409907
  H          -0.05018761402434     -1.54823597548342     -1.80969747544947
  H           2.62477931116289     -1.33831259406535     -3.28484762153220
  H           1.52919580496406     -2.72122130078205     -3.34446683514153
  H           2.33756463246239     -2.30207969083643     -1.83186670564824
  C           6.06847489671899      2.75262236051403     -5.08017496648446
  H           5.57210776762233      4.58135959168864     -4.06744547617237
  H           4.28491803648847      3.96859013697724     -5.11458541949013
  H           6.85322831263190      2.46732676681040     -4.38322404637516
  H           6.52713148522898      3.25208231321620     -5.92992864802557
  H           5.57702039708219      1.84919476960702     -5.43392658367034
