28
Coordinates from ORCA-job NEB_product E -41.910576797360
  C           2.96648245018691      0.96198051095245     -2.01931762375344
  C           1.79049939248710      0.54991519370961     -2.91917250076150
  N           2.55969386183063      0.87533015039120     -0.60220325288307
  H           3.78766705056762      0.25059144992763     -2.15550238211420
  C           1.33512350848929     -0.87285113837141     -2.70220144727557
  C           3.50886859960878      2.39840066458576     -2.23288698673322
  C           2.44461683290548      3.42021237818590     -1.95072214448306
  C           2.49160567947657      4.25955866930729     -0.93387901579910
  O           1.32243224167759      1.26521808261384     -3.75892262223180
  C           4.06804517702408      2.58927629701306     -3.65069392578635
  H           4.33080991642660      2.53040943463923     -1.51677476788343
  H           1.61823130747832      3.43308477671513     -2.64516706821476
  H           1.71583384743335      4.98441804385554     -0.76156700937730
  H           3.30669782833110      4.25642497501676     -0.22729032752367
  O           3.39196174704920      0.48850143609121      0.18315889418074
  O           1.43987600376839      1.22750606173030     -0.32228235505724
  C           2.23020379257770     -1.82604220918070     -3.50219958833717
  H           0.30966260143991     -0.95898402625346     -3.06339473953261
  H           1.36318776241454     -1.14052189921962     -1.64573799482586
  H           2.25164862876840     -1.53427583169522     -4.54960659072320
  H           1.83844955367611     -2.83724611697787     -3.43435844861346
  H           3.24787844879021     -1.82973276636598     -3.11826203340114
  C           5.23057721173925      1.65962949537678     -3.97914231685224
  H           4.40981238909456      3.62399566200707     -3.71931860537427
  H           3.26774851858891      2.45468140987419     -4.37769505490596
  H           5.98861990712598      1.69641369812234     -3.19916919456055
  H           5.69158100517216      1.96607737285337     -4.91468947078721
  H           4.89948473587125      0.63032822509559     -4.09760142638934
