18
Coordinates from ORCA-job NEB_product E -36.881091258700
  C           2.79594907575409     -0.64117686793174     -0.65697107803671
  C           1.51311388631105     -1.22929714662523     -0.16880976644463
  N           2.67419373880670      0.78388064517990     -0.77682824305389
  H           3.60601721862996     -0.87016043745648      0.04748990372419
  N           1.66780872811839     -2.64158314026861      0.43094605640631
  C           3.16556135945899     -1.37516960074568     -2.00751098046805
  C           2.07596331104541     -1.26017813522396     -3.02606304495592
  C           1.16256561457147     -2.19195619818805     -3.22398905555288
  O           0.41604918778229     -0.78489128746032     -0.22889657852605
  F           4.30634751623268     -0.75736163719115     -2.47021279093176
  H           3.43526687516520     -2.41604369380759     -1.79637418353098
  H           2.07845739934472     -0.34156380962442     -3.59562786555154
  H           1.15841397069178     -3.11760148751795     -2.67135665726950
  H           0.38005554926822     -2.06779574592580     -3.95066037701432
  H           3.46659954593973      1.17543809548003     -1.27138141803930
  H           1.81365773929039      1.05108341766097     -1.24053563910895
  O           0.65744655926041     -3.14979766240762      0.83119387894820
  O           2.77813272432854     -3.12092530794629      0.43398783940579
