22
Coordinates from ORCA-job NEB E -37.868440689470
  C          -0.02556826017019      0.37672027824150     -0.64202906089321
  C          -0.51506376701375      1.74761519346887     -0.49993732024525
  O           1.36390361667322      0.19302106300980     -0.48520086251615
  H          -0.37204959320857     -0.11639945725007     -1.56195529077586
  C          -1.14751924834772      2.45410096723531     -1.50318714236329
  C          -0.10195790223356     -1.48602318358427      1.10694606799926
  C          -0.65329696703241     -0.22759588395072      0.73785685485092
  C          -0.26504510810962      1.01072250511915      1.59561743438725
  O          -0.61114291047059      2.11703688665617      0.80224569546834
  C          -0.85579632494573     -2.75777857398424      1.00673491439561
  H           0.95679092592642     -1.57157685715561      1.28212170744594
  H          -1.73825645388840     -0.27157107618175      0.61406350738867
  H           0.81406654630037      0.97382159225320      1.77351271869603
  H          -0.80591523481105      1.08920186246379      2.53976561126941
  C           2.10298203623928      0.60705212206306     -1.61043798679673
  H           3.14415882775027      0.38616674671787     -1.38505072487101
  H           1.98472959574939      1.67987260352928     -1.79699058423643
  H           1.79533210268259      0.05712239711093     -2.50747603396188
  N          -1.59743087874698      3.01855746859952     -2.40621753375402
  F          -2.21431480874076     -2.55884556052357      1.01295594696174
  H          -0.62669493477848     -3.41925472150703      1.85299097571929
  H          -0.63191125882373     -3.30196637233121      0.07367110583140
