22
Coordinates from ORCA-job NEB_product E -37.900312927490
  C           1.47937041575928     -1.20593686315069      1.12374862875765
  C           2.56936550558592     -0.13435590132101      1.19774966744370
  O           1.83827116728578     -2.29173889162812      0.32748366403656
  H           0.56297171231940     -0.71612467476000      0.73892665486279
  C           2.08135431423287      1.07496327544150      1.84545105420329
  C           1.18605797035041     -1.70308113126826      2.56697850823539
  C          -0.10531059052232     -2.47003020303722      2.57801424477176
  C          -1.17817422204086     -2.08652100407622      3.24191868274236
  O           3.69302053347643     -0.25312772965301      0.78909181029807
  C           2.33576256242078     -2.56835414451193      3.10387822826396
  H           1.09907429141632     -0.82477531469272      3.21676212697794
  H          -0.09286996391548     -3.37550761989888      1.98960083028806
  H          -1.19308558670831     -1.18285132656670      3.83022882277427
  H          -2.08685807625768     -2.66265636101506      3.22806503459235
  C           1.84608415349454     -2.03535940393874     -1.05647012744932
  H           2.06257648554533     -2.98879123308683     -1.53249341558120
  H           2.61680288599401     -1.30985789422607     -1.33434002517551
  H           0.86800361117782     -1.66877314828163     -1.39366587646541
  N           1.65928947958886      2.01405834372957      2.34581931270916
  F           2.30472988866004     -3.83309823026258      2.59091807413096
  H           2.24289389240745     -2.67257190612606      4.19089264016310
  H           3.31286956972940     -2.14550863766932      2.84804145942003
