22
Coordinates from ORCA-job NEB_reactant E -37.911684702910
  C           1.23909540473093     -0.19777702766474      0.24567898010850
  C           1.30431338806191      0.39134005856395      1.45568795100107
  O           0.53704610109257     -1.32334397418668     -0.05040116878447
  H           1.79163824750564      0.25946840264557     -0.56738025663001
  C           2.06976621423376      1.58391310483892      1.52553672276268
  C           1.48183357077349     -3.04478921237435      3.92270463897335
  C           1.23314318447007     -2.30062201082991      2.85926369171537
  C           0.17633446264079     -1.23966234361229      2.80371034176547
  O           0.72393273179912      0.05912723162928      2.64529057215614
  C           2.53330483084294     -4.10552489221978      3.98512953096085
  H           0.91571528238892     -2.93379826988030      4.83707596524459
  H           1.81997935878158     -2.42975846304052      1.96109977287199
  H          -0.36596634144656     -1.18611661500424      3.75115574264845
  H          -0.52642541142461     -1.45821862819124      1.99113506458565
  C           0.83101578056323     -1.90923263730164     -1.29829822857626
  H           0.12735771549016     -2.73007436804016     -1.42218272908327
  H           1.85325904424870     -2.29983492062936     -1.32039910203188
  H           0.70284201369142     -1.19003738807453     -2.11307898013388
  N           2.69514726736574      2.54403953220071      1.56433789086008
  F           3.19395891731964     -4.25063462090394      2.79182854160054
  H           2.09149818769635     -5.08163730156192      4.22261159238602
  H           3.29151004917421     -3.85972565636282      4.73949346559901
