18
Coordinates from ORCA-job NEB_reactant E -34.282428007570
  C           2.00236781019859     -0.08729028088494     -0.08299176393423
  C           1.93477030573015     -1.02512876883722      0.86813521211846
  Cl          1.94459854493009     -0.31638362321886     -1.79452978415805
  H           2.07834560757236      0.94220033966928      0.21751668344785
  O           1.94362266488376     -0.55891934924696      2.14500418126411
  C           4.50511320712857     -4.00102553308158     -0.48852570955660
  C           3.67795484529981     -2.98533657568535     -0.64073421612462
  C           2.21027550339564     -3.09017514712158     -0.36428524610404
  O           1.83282071467842     -2.37111026483989      0.80358040771331
  F           5.81684304496299     -3.89000798244310     -0.73503250935555
  H           4.23602545918304     -5.00148253211044     -0.17925589812022
  H           4.05249088212120     -2.02212974410372     -0.95310684988039
  H           1.93554514222532     -4.12225608383448     -0.13296984190887
  H           1.63608692655975     -2.74616384364559     -1.22941867972669
  C           1.91618135424556     -1.51380158296882      3.19086508757574
  H           1.94719488502216     -0.92932358645828      4.10774035339064
  H           2.78131297403211     -2.17953906129095      3.14340767803802
  H           1.00185012783049     -2.11032637989752      3.15850089532111
