18
Coordinates from ORCA-job NEB_product E -34.299036930140
  C           3.00010878053347     -1.15279492278052      0.52078790592008
  C           1.57468864909575     -1.40134942537957      1.02119284688282
  Cl          2.91656057627437     -0.00248973110174     -0.83971012639910
  H           3.64049727640863     -0.69233249353901      1.27505415111476
  O           1.40705463100001     -1.64969281137886      2.32380700555768
  C           3.61326487341610     -2.50199590860248      0.08816795457638
  C           3.24880310576005     -2.87819446071657     -1.31640756896267
  C           2.18648339698508     -3.59680887585417     -1.62107212786845
  O           0.62977345668285     -1.43079324567402      0.28950402242409
  F           4.98409944292736     -2.41393848858838      0.21835136151891
  H           3.29701523394840     -3.28280163192299      0.79569319903918
  H           3.92094267968318     -2.49335347894800     -2.06859908160054
  H           1.51102622186492     -3.96923119531902     -0.86914000411644
  H           1.93923237020672     -3.82264038627370     -2.64291652536257
  C           2.44937761547791     -1.58407124564879      3.28234313129465
  H           1.98596485349932     -1.87956010339720      4.22255277426576
  H           2.83592138654024     -0.56691248634221      3.38041970543392
  H           3.26548544969565     -2.27173910853277      3.05177137628154
