24
Coordinates from ORCA-job NEB E -36.378009815870
  C          -0.07165326460539     -1.43147388539495      0.93566952421757
  C          -0.17590632293815     -0.79970328490585     -0.23521722904599
  C          -0.52319043404980     -0.94242376394377      2.28103591689852
  H           0.45176395252765     -2.37412766742074      0.90441678078243
  O           0.37729492094217     -1.41349360796187     -1.32783565857741
  C           0.14999405291685      2.60333231510885     -2.34125113738335
  C           0.57433205502713      2.15377856910638     -1.17060788517807
  C          -0.35592304408546      1.60132159632441     -0.12538216590642
  O          -0.91698678348718      0.33515000163944     -0.45938712286820
  Cl          1.23270666148876      3.26258607884856     -3.50498196454695
  H          -0.87731587481187      2.54384313431385     -2.66635524558893
  H           1.63175492106482      2.13188130666084     -0.94688143423216
  H          -1.23018689957757      2.25903814967876     -0.01706716084693
  H           0.17355998750176      1.54764879201710      0.83385436952242
  C           0.16373782265238     -1.69580799991924      3.42717477029466
  H          -1.61433816356766     -1.03266702551420      2.35799460078471
  H          -0.30741401712187      0.12931086958045      2.36661055453229
  H          -0.55459037067555     -2.04152117268510      4.16983533633068
  H           0.90084466292880     -1.06653708402165      3.92766217402423
  H           0.65850857527687     -2.59141403641929      3.05086864320714
  C           0.11986900344275     -0.88574288510131     -2.61073127485466
  H           0.84441652282778     -1.34973802526944     -3.27269900307368
  H           0.24022204026674      0.19203247654765     -2.64375659156187
  H          -0.89150000394396     -1.13527285126889     -2.93296879693004
