24
Coordinates from ORCA-job NEB_product E -36.414477074550
  C           2.51648542143482      0.83919430867906     -0.96207908581544
  C           1.16201596088778      0.68914155137346     -1.65456881902546
  C           2.31774662944058      0.65482743521161      0.54758614667229
  H           3.21739419749482      0.08080334266865     -1.31903431098446
  O           1.11982885415658      0.16412174363176     -2.88915990898232
  C           3.03257869545563      2.22823695810724     -1.39466007324788
  C           2.46453433610692      3.35867540313351     -0.60539309469330
  C           1.59183560058792      4.21564390017530     -1.10130195717998
  O           0.13626495066491      1.06138238619166     -1.15668937415118
  Cl          4.83403564709264      2.28140015665165     -1.28902007833288
  H           2.81461033223245      2.38176825738218     -2.45676379056334
  H           2.81708640597672      3.45116946809346      0.41098816933633
  H           1.23029164546098      4.14121296440346     -2.11354519385939
  H           1.18846372521513      5.01652737104564     -0.50717042230711
  C           3.61994490433447      0.65451701053625      1.33715173927841
  H           1.81443760788118     -0.30441268428962      0.69350203851235
  H           1.64313167869765      1.42829864545595      0.91469723818724
  H           4.29812122308870     -0.10776512811890      0.95902721096143
  H           3.41493214124501      0.44120411078710      2.38347873136210
  H           4.12366247520404      1.61445339425055      1.27794113663794
  C           2.25063030555372     -0.36871195054793     -3.55271076133255
  H           1.88966192280314     -0.66297234359563     -4.53732982364243
  H           2.63534223643777     -1.25215889522582     -3.03689175902160
  H           3.04856310254643      0.36764259399939     -3.66845395780875
