24
Coordinates from ORCA-job NEB_reactant E -36.389930557790
  C           2.04889277485099     -0.13917534860354     -0.04342180166154
  C           2.00464173218199      0.42822068574595     -1.24560304081892
  C           1.54602034321828      0.48316383963735      1.22066890332496
  H           2.49680944833261     -1.11733787369365      0.02987515248694
  O           2.54395324414175     -0.22423973788349     -2.32168450810927
  C           3.66680258950352      3.74819842321905     -3.05579095991152
  C           3.46964275655278      2.81406328328212     -2.14174717250030
  C           2.25872645060058      2.78221357743129     -1.25618893412922
  O           1.42774602357678      1.65091327628829     -1.49738347549145
  Cl          5.04877969743477      3.77947117373439     -4.07726241148735
  H           2.98736649628962      4.57053763280347     -3.22233957598226
  H           4.17155518151953      2.00141279065710     -2.01472686061823
  H           1.61535862811755      3.64493243514429     -1.44221689596480
  H           2.58196938709630      2.78711537931314     -0.20645228113991
  C           2.68614006925317      0.77451290983996      2.19812729349204
  H           0.84674985378258     -0.20961561647187      1.69662882276852
  H           1.00162604883982      1.40032556872404      0.99121183846113
  H           3.21250724581056     -0.14368241913228      2.44774112973031
  H           2.29762546651387      1.21089820723286      3.11544481215719
  H           3.40260309150307      1.46777105844219      1.76188102811303
  C           2.03608253488106      0.11803817625770     -3.59655927762773
  H           2.50621459904842     -0.57370000378275     -4.29250235618854
  H           2.29167524282509      1.14563555520854     -3.87064347547047
  H           0.94991109412534     -0.00107297339415     -3.63005595343261
