23
Coordinates from ORCA-job NEB_reactant E -31.861027695120
  C           2.10184799476480      0.17379277322652      0.10927493689764
  C           2.08700654835086      0.07912053095721      1.42969353856395
  C           1.39483216696668     -0.78378583564139     -0.79782354411165
  H           2.65188509960203      0.97584249855357     -0.35842492327223
  Br          3.06496014681889      1.40681091697172      2.46470502178149
  C           3.07159221823875     -1.56569267915617      4.88221647553357
  C           3.23024531213487     -1.64674567426985      3.57044306259342
  C           2.11270364756253     -1.96915665914764      2.62575585360947
  O           1.40200727837189     -0.80473514872248      2.16439493214774
  C           4.14857691326136     -1.20232797296801      5.84260907352215
  H           2.10033396554682     -1.76606280364851      5.31750148491439
  H           4.19191418083032     -1.43427123378343      3.12268290548205
  H           1.33816854761450     -2.55693697510962      3.12298877481588
  H           2.48961089934529     -2.51934948134221      1.75374056348401
  C           2.38534657377733     -1.50178416460205     -1.71405565196220
  H           0.68430309369565     -0.22261388103938     -1.41073605628965
  H           0.83286718759645     -1.50830375254044     -0.20632066714323
  H           2.93800584768726     -0.78303896976909     -2.31470284784280
  H           1.85748721987411     -2.17786820327151     -2.38204898852414
  H           3.09865439125958     -2.08015022804502     -1.13052010326972
  H           5.09122251810561     -1.03399178016065      5.32888823151411
  H           4.27825170394961     -1.99344340972395      6.58050612644211
  H           3.87377654464480     -0.29370786676762      6.37713180111364
