23
Coordinates from ORCA-job NEB_product E -31.881854424060
  C           2.61824208031490     -0.23191314576015      1.40031961458811
  C           1.36297709109570      0.56563762329466      1.50817090880310
  C           2.48289392263241     -1.15769675920771      0.18166974332551
  H           3.45775557751309      0.45432911507809      1.25078094969738
  Br          1.64233608758550      2.24558660920511      2.53862186706237
  C           2.82054411900644     -0.93158813795610      2.78198323485431
  C           2.06661722736976     -2.22690315431997      2.85375525995695
  C           0.88232304689928     -2.35782284075707      3.42084631802317
  O           0.27657270832787      0.33933296804218      1.11288843066497
  C           4.30175040161892     -1.12959137572406      3.10127286772063
  H           2.41518483023219     -0.26001818352590      3.54840541293640
  H           2.55751598972118     -3.08276706426120      2.41083879016589
  H           0.37232695187177     -1.52328971291479      3.87444042727941
  H           0.36769357247803     -3.30262010885376      3.45561924649027
  C           3.77468423377549     -1.86336476304437     -0.20875521695317
  H           2.15647199337491     -0.54231173574351     -0.66118147341509
  H           1.69658625646338     -1.88973072015370      0.37153015537945
  H           4.59370526993303     -1.15216501161671     -0.29195703550269
  H           3.64622355085795     -2.34862471450697     -1.17339824954190
  H           4.04642313296340     -2.62713308076550      0.51380508961387
  H           4.81753150117100     -0.17236360477497      3.11728719194294
  H           4.78696247435485     -1.77432120526667      2.37554180170096
  H           4.39877798043894     -1.58476099646693      4.08451466520715
