17
Coordinates from ORCA-job NEB E -37.948973969580
  C           0.43642192633829     -0.65366770166469     -1.13390044921777
  C          -0.76233076874575     -0.08616384509294     -1.58857446801906
  C           0.36540832660470     -1.92085680554920     -0.49144857224915
  H           1.32643444804103     -0.50498119619424     -1.73890513273316
  F          -0.61580209842603      0.85701287676927     -2.56649348659889
  C           0.65477399888269      0.57527228278321      0.44274441507870
  C          -0.55457570342045      0.43193623984286      1.11752503619393
  C          -1.73150386302108      0.88631977961234      0.49588224515442
  O          -1.83224754204826     -0.07007137845372     -0.94449739400098
  N           1.86213706344280      0.05865135974389      1.07796520583661
  H           0.87413639424530      1.46270082110739     -0.14327767757065
  H          -0.60701188167814     -0.33260668819951      1.88112228583298
  H          -1.71556999605679      1.85393192073289      0.00681978075008
  H          -2.67525408663143      0.64676462690802      0.96461482888815
  N           0.33328963216673     -2.95030376355338      0.00363619009561
  O           2.90137830679769      0.56026882322372      0.71886025482651
  O           1.74031584350870     -0.81420735201591      1.89792693773270
