17
Coordinates from ORCA-job NEB_product E -37.994240893960
  C           2.75600788398105      1.25076040352956      1.07404617229726
  C           1.71948452751659      1.78740968899975      0.11257901590852
  C           2.64996132082963     -0.19448107619609      1.15870510829423
  H           3.75306778962132      1.48268685772940      0.66036315612414
  F           1.81696003222027      1.17677348338208     -1.08453219119651
  C           2.61480022293658      1.92348814275655      2.45200121635150
  C           1.58310210660665      1.28105914266629      3.33091164831648
  C           0.44278852824108      1.86547737489701      3.64426314642440
  O           0.91964858325841      2.63101904062453      0.29878958267857
  N           3.95148116458778      1.92926662771069      3.14478115414657
  H           2.35901016182400      2.97988141451862      2.29228894120361
  H           1.82821135334432      0.29139284660181      3.68996518260376
  H           0.18766620956925      2.84937479966861      3.28664311264636
  H          -0.28572133057880      1.37458147165092      4.26412946749673
  N           2.56936425519894     -1.32900683140540      1.23766006778712
  O           4.92981281485044      1.99108071918014      2.44230760367829
  O           3.93715437599249      1.90533589368554      4.34359761523897
