19
Coordinates from ORCA-job NEB_product E -34.735742638490
  C           2.59523496829380     -0.93538666186759     -0.79160029466486
  C           2.26834105819057     -1.87793182857491      0.35466740912558
  F           1.90827583993343      0.24162659082641     -0.65943843539291
  H           3.66516976833468     -0.68478639536967     -0.77600146606210
  C           1.29755170000688     -1.34845632763347      1.29602944312541
  C           2.27310231286051     -1.61915723524136     -2.14154954817212
  C           0.78143986512276     -1.65231344746365     -2.34963119359507
  C           0.05346427966830     -2.74555291330819     -2.23023461171350
  O           2.75222169433996     -2.97339369348791      0.46539690946414
  O           2.95630057426967     -0.89101916072812     -3.13618552401484
  H           2.67272294497710     -2.64757610952605     -2.08543327962868
  H           0.34238073146548     -0.69431478540632     -2.58948191978241
  H           0.49424864190115     -3.69942000324013     -1.98720391249531
  H          -1.01402027902353     -2.73156445905786     -2.36478148157755
  N           0.52947403983873     -0.94617048114812      2.04139911394171
  C           2.91706252854293     -1.50436186276869     -4.40272518261909
  H           3.37219335027076     -2.50160110385512     -4.36883626060485
  H           1.89141343311180     -1.59574406321903     -4.77503940251305
  H           3.49162254789502     -0.86207605893022     -5.06595036282051
