14
Coordinates from ORCA-job NEB_product E -26.312451534930
  C           2.13316543464869      1.70388197589052     -0.88218772147119
  C           0.88535118508257      1.53623274861319     -1.71351922462302
  I           1.69895665522738      0.52425226662614      0.87423110430388
  H           2.99629239628644      1.23649483798728     -1.35778701979582
  H           0.81980153513525      0.54295329766441     -2.19596446505358
  C           2.43338087411436      3.16216309704516     -0.53487001919441
  C           3.50554189651288      3.31535285754950      0.49904001062584
  C           3.28427828811450      3.76466305067507      1.71946181173741
  O           0.02156939710000      2.35398927968263     -1.81521946352282
  F           2.86122986096981      3.74326390289768     -1.71756525538783
  H           1.50874850838970      3.67958206459452     -0.24981032748103
  H           4.49430821818988      3.03102594899132      0.16633450593350
  H           2.30042298151788      4.05603485188273      2.04887763143749
  H           4.07695276871068      3.84790981989982      2.44177843249157
