17
Coordinates from ORCA-job NEB E -26.125159989230
  C           1.08892944692678      0.33913752002892      0.79864958391688
  C           0.80852378572642     -0.97273044051235      1.21474902469763
  H           1.96231737330183      0.44338740910780      0.16789963143846
  H           1.05003747446805      1.09251492308681      1.57475671206150
  H           0.25607965821587     -1.15787613879028      2.13303780186933
  C          -0.16675590807823      0.70436465414836     -0.46822624929062
  C          -0.60157300860335     -0.52551232539880     -1.03910599642944
  C           0.44121480395190     -1.53314076070072     -1.12022703532926
  O           0.69633242128519     -1.92021827202631      0.31799607956462
  C          -1.24710465704238      1.56820803408444      0.15203997514927
  H           0.46936586173420      1.31041865896227     -1.10966797710822
  H          -1.55089071369462     -0.90534779580232     -0.67553160374699
  H           1.38338160044587     -1.17407577312495     -1.54132646083348
  H           0.15015074508452     -2.47625213461284     -1.57472169127900
  F          -1.90213690465754      0.89279263244688      1.15347197553592
  H          -2.00537314123191      1.84044376103324     -0.59071645165838
  H          -0.83249883783258      2.47388604806984      0.60692268144178
