22
Coordinates from ORCA-job NEB E -39.562106597720
  C           0.18388761409684      1.81336196125428      0.62582832836981
  C          -0.96360749601945      2.03509554130311      1.40695305543007
  N           0.13189010235320      2.09671096025780     -0.71168225005144
  H           1.15703661656643      1.71091452879108      1.06902009937546
  Cl         -1.39209539859352      3.63528199094087      1.94848287605408
  C          -0.23725628724423     -1.32814111435637     -0.18203884512947
  C          -0.54271264368756     -0.75899126412009      0.97651109258572
  C          -1.87903903630197     -0.16244384125102      1.27186064184956
  O          -1.86858569689204      1.20652903152704      1.74241162819269
  C           1.07821193162235     -1.94971807356252     -0.50046740099517
  H          -0.95659806583067     -1.32304124498173     -0.99040811901497
  H           0.16010821044011     -0.76019756932701      1.79786454661241
  H          -2.39585032616640     -0.70089459316985      2.07323560808952
  H          -2.50732103059987     -0.16254697295136      0.37476199618912
  O           1.15972486373918      1.99466838288849     -1.37400548940080
  O          -0.97294719805145      2.35707039425351     -1.20066424330284
  C           1.67606485082790     -1.32874004797938     -1.76411379862569
  H           0.93265399220445     -3.02156158495023     -0.66594193434175
  H           1.76325056432341     -1.82558731064823      0.33955073658722
  H           1.03043934327086     -1.51141005386474     -2.61961026823228
  H           2.65115035794629     -1.76270139540843     -1.96896323198661
  H           1.79159473199617     -0.25365772464522     -1.64858502825465
