22
Coordinates from ORCA-job NEB_product E -39.633346748840
  C           2.50042597501373     -1.81573374955929     -0.28711815214120
  C           1.43452728438431     -1.02753573416964      0.44306234544792
  N           2.69268214757243     -1.15457684707610     -1.61800532343502
  H           3.45325977421952     -1.77071596338950      0.24563915243529
  Cl          1.85711589978351     -0.76463532712036      2.13002371713282
  C           1.99312574496557     -3.26627986256797     -0.46175639502031
  C           1.29325388878508     -3.71530965206535      0.79230694603491
  C           0.00259653196061     -3.97864831704157      0.85969336863560
  O           0.41806078328078     -0.62316856102200     -0.00293099909495
  C           3.14434267262750     -4.22784910397616     -0.78243152719947
  H           1.27544553487542     -3.25488374262684     -1.28932618551601
  H           1.92918756884546     -3.83113973194176      1.65970140378244
  H          -0.46183517637732     -4.31066795671719      1.77185492551805
  H          -0.64439962799342     -3.86700422904345      0.00554507793224
  O           3.67016767274595     -0.45796418913639     -1.71708419613147
  O           1.85873093864213     -1.33895902954924     -2.45863798843372
  C           3.84929234776670     -3.93111203258699     -2.10064291748097
  H           2.71922345565147     -5.23283480538810     -0.82390765450077
  H           3.86868745331274     -4.21117644068338      0.03521743211115
  H           3.12990785400872     -3.84073699136835     -2.91133036065542
  H           4.53195943884324     -4.74204351674437     -2.34183843659788
  H           4.43434183708587     -3.01612421622598     -2.04863423282322
