22
Coordinates from ORCA-job NEB_reactant E -39.621506686360
  C           2.18851270627905     -0.66134937636618      0.10306748054572
  C           1.40595549624222     -0.92061504811840      1.17424438284914
  N           2.00864046548401     -1.13800159139827     -1.21163844676003
  H           3.04481881663365     -0.01565356327464      0.21496179172728
  Cl          1.72335653396122     -0.00127975812751      2.60605687916645
  C           2.03407925225010     -4.22997009047031     -0.70555183256000
  C           1.64154771247128     -3.68743413224494      0.43606999082640
  C           0.32785515451615     -2.99323375824940      0.62287303030891
  O           0.45306437735753     -1.79005664337852      1.39918466386764
  C           3.33629116007543     -4.92662323859550     -0.91554529191019
  H           1.39213540746381     -4.17010691488302     -1.57508266055377
  H           2.26924767553446     -3.72762667001483      1.31751274825749
  H          -0.36087283881245     -3.59820869521177      1.22078009190872
  H          -0.12856796121598     -2.76604031113428     -0.34724369533620
  O           2.99729640533597     -1.18041477243456     -1.91768872353386
  O           0.88566801606227     -1.43221181660564     -1.58439751279375
  C           4.04757089799866     -4.37917005553823     -2.15276045968176
  H           3.14645724883164     -5.99506180866163     -1.05584172298005
  H           3.96810737573795     -4.80977909630550     -0.03299693884484
  H           3.46199965981051     -4.57996784828625     -3.04659135873256
  H           5.02286808790714     -4.84537522667395     -2.26562184226924
  H           4.18266835007535     -3.30301958402666     -2.07219057350149
