15
Coordinates from ORCA-job NEB E -30.353977658690
  C           1.09153075572337      0.95897184514881     -0.06947593735336
  C           0.72189261527500      0.32552016098163      1.11787914184220
  F           0.48962436543099      2.12512579736427     -0.37339527395141
  H           2.13163178832500      0.95555871842157     -0.37692964514882
  O           1.58937332548333     -0.61551309153228      1.58662263192453
  C           0.10243833167487     -0.25386320968053     -1.30967554943288
  C          -1.19365294804408     -0.11243848607407     -0.84553249126995
  C          -1.46336171422852     -0.57963743614594      0.47160984507156
  O          -0.50716192771109      0.29077517863865      1.50090003516830
  I           0.58299438868136      0.43301846115656     -3.25739207360560
  H           0.66995987589000     -1.14540652158380     -1.07620724739073
  H          -1.81511390386556      0.67160207732158     -1.25010297917894
  H          -1.11991041467117     -1.58480978158300      0.70506578958270
  H          -2.44987085136996     -0.37038370378350      0.86434288421742
  H           1.16962631340645     -1.09852000864996      2.31229086952497
