21
Coordinates from ORCA-job NEB E -44.076502449290
  C           0.63693482989605     -0.70825346799475      0.34815316276791
  C          -0.74365938161403     -0.93237472602316      0.79394159285416
  O           1.50602125611220     -0.27370200229455      1.34527401731572
  H           1.04773648188710     -1.55191364793377     -0.22289821537932
  C          -1.58229298759357     -1.94996965004792      0.18498653369443
  C           0.55075844333803      0.58574290414165     -0.68716931698643
  C          -0.03224611598557      1.63942725960204      0.10903317220082
  C          -1.34175217648554      1.43719601407021      0.61229713557936
  O          -1.33406307922312      0.04100486189073      1.41250051318394
  C           1.93314442543367      0.88451579865774     -1.25794128286034
  H          -0.09153377288928      0.22949231923171     -1.49677293003855
  H           0.63631483465706      2.32838571583037      0.60106112276105
  H          -2.10706238624201      1.20331579477410     -0.12804301671207
  H          -1.69060253898307      2.14665882014888      1.35388772491082
  H           1.75699783688801     -1.00886962268421      1.91512131505645
  Br         -0.74274836397005     -3.65515347232992     -0.05335990977849
  Br         -3.25848205124520     -2.13427687511260      1.09179450232306
  Br         -2.15632314451571     -1.33980777599510     -1.87475821591582
  F           2.71065778035191      1.59372903011060     -0.38914537542255
  H           1.82699127956479      1.50008494765944     -2.15856346365775
  H           2.47520883061831     -0.03523222570148     -1.49939906589639
