21
Coordinates from ORCA-job NEB_product E -44.109032370350
  C           2.11673842219429      1.05994423036498     -2.14277782409541
  C           0.92094859911358      0.45183402411833     -2.86469833259167
  O           1.74968580726533      0.94826141691813     -0.79069058148572
  H           3.03339739390210      0.47637854909538     -2.33996248285185
  C           0.99042853765308     -1.05026785574102     -3.05111608272951
  C           2.33807621346472      2.52250348217542     -2.57349162119951
  C           3.40690992231481      3.11001981137586     -1.69653111594246
  C           3.15428378156758      3.85322476231472     -0.63362945595998
  O          -0.02493938446698      1.06846268950750     -3.25276111955711
  C           2.74034562566836      2.58812179533488     -4.04694323621074
  H           1.39648462186646      3.06406857720112     -2.43435211250487
  H           4.42262563228055      2.85469899279710     -1.96724832520118
  H           2.14972862806169      4.13225709589029     -0.35771063548093
  H           3.94375267641812      4.24035816181594     -0.01301387194695
  H           2.24080649470689      1.60619893989470     -0.27546931496698
  Br          1.62955826901766     -1.99815073169034     -1.50489614900528
  Br         -0.71703838014612     -1.74155743718387     -3.60641939395151
  Br          2.27977835939341     -1.25210967803644     -4.52146281340830
  F           2.96916855168560      3.88836211786353     -4.40553070695502
  H           1.94592427447446      2.21609761730115     -4.70197224714052
  H           3.67003595356441      2.03789343868265     -4.23502257681449
