17
Coordinates from ORCA-job NEB E -36.519741628990
  C           0.74362598901489      0.48329178580285     -0.78148748875492
  C           0.11861909833618      1.64423371432046     -1.21369538081665
  N          -0.82426739350137     -2.68136435344184     -1.74970389473269
  H           1.70271605394535      0.17030223961800     -1.15452508191671
  I           1.39874038931815      2.70428130022038     -2.70804334354497
  C           0.09417813919588     -0.34741668149961      0.26522811137308
  C           0.33815975687039      0.34899525050483      1.59044015375382
  C          -0.53896086474400      1.13677496848308      2.18034822407534
  O          -0.93297527651635      2.13953683714979     -0.92769942096558
  O           0.63172064330992     -1.65059600827889      0.23155764603516
  H          -0.99810993785661     -0.38283242217456      0.08375577851060
  H           1.32465200683343      0.17376986265197      1.99836098111805
  H          -0.31360342641933      1.62892420848686      3.11101889577661
  H          -1.50595490473121      1.33420770006610      1.74982839918590
  O          -0.04372691190973     -2.47741397113086     -2.59756926014083
  O          -1.70687190438480     -2.16424441702812     -1.17355655334026
  H           0.51205854323920     -2.06045001375046      1.09574223438404
