17
Coordinates from ORCA-job NEB_reactant E -36.614043572270
  C           2.03175202747891     -0.01878359679820      0.10714477986620
  C           1.27407974240861      0.49784404736068      1.09598344140329
  N           2.35436603322645     -1.39466830130695      0.01822309789057
  H           2.44171207529113      0.58644610764266     -0.68270618528630
  I           0.91636099736717      2.59696885954752      1.02771125846461
  C          -1.13791952908263     -0.75727341748241      5.07062470114190
  C          -0.38865218135630     -0.85975320166883      3.98180510628685
  C          -0.02582139115163      0.29904224266908      3.10148520908987
  O           0.77356120866262     -0.21842712235506      2.05500595204141
  O          -1.48414882329397     -1.77147681657746      5.88395929196180
  H          -1.55047161419794      0.18171786503936      5.41253796620388
  H           0.01464973761410     -1.80762032632848      3.65615810464733
  H           0.53993859243637      1.06078283163132      3.65789669814341
  H          -0.92300930606897      0.77666857656376      2.68099661836440
  O           3.04514063267125     -1.71863674334357     -0.92841856531512
  O           1.93903080397371     -2.16014778588995      0.86490464230631
  H          -1.10716900597886     -2.60168321870348      5.56288788278959
