20
Coordinates from ORCA-job NEB E -29.128939227130
  C           1.38618927156866     -0.49346050204972      0.42214203836831
  C          -0.01015537170796     -0.55126550240816      0.38318941450081
  H           1.85186360081655     -0.28794839657848      1.37535683741519
  H           1.93898851301414     -1.19805705880143     -0.18455212805646
  C          -0.73528294676014     -1.22069959989089     -0.75518586432771
  C           1.66196873620057      1.20482155843554     -0.35644498202395
  C           0.91777825104755      2.07131988003389      0.44760979339922
  C          -0.48602432005342      1.80591004348760      0.54415028063445
  O          -0.67158711968359      0.33256376283270      1.09672598558736
  Cl          3.39752005121367      1.41414315593505     -0.37171489391092
  H           1.31009923280153      0.98202898937251     -1.35879840324535
  H           1.40878247299867      2.52724916119643      1.29411774515538
  H          -1.01772695664879      1.75255384380169     -0.40600967338642
  H          -1.02185093049861      2.40725949086087      1.26981263917205
  C          -1.97581135828035     -1.96266191253322     -0.26000117846035
  H          -0.06324786916796     -1.90628947587409     -1.27136369703690
  H          -1.05065278056237     -0.44595133364673     -1.46655971210591
  H          -1.68776959285477     -2.78429469671904      0.39113723001525
  H          -2.54189487526636     -2.36272298604933     -1.09756661963247
  H          -2.61118600817702     -1.28449842140516      0.30395518793842
