20
Coordinates from ORCA-job NEB_product E -29.177039296450
  C           1.98174016781055      1.16609998557349     -1.35837166970067
  C           0.76458563049502      0.60606183890303     -2.08730875205992
  H           1.76094393576772      1.19035017467978     -0.28810994386718
  H           2.86825504609855      0.55722172024693     -1.53313564260826
  C           1.06595184419145     -0.51494369927532     -3.04824337047056
  C           2.23232685985252      2.60504632928819     -1.80804725317094
  C           3.32268843393944      3.26516375432740     -1.03698913913289
  C           3.18599935249571      4.42669227636436     -0.42415301150820
  O          -0.33445808443086      1.06096582465687     -1.90673190535949
  Cl          2.72029665939920      2.58891431212206     -3.54718419622128
  H           1.30409909293994      3.18001902593242     -1.76184757483225
  H           4.26338134738427      2.73187242830363     -1.02023330403087
  H           2.25626809045766      4.97106388078071     -0.44224845453541
  H           3.99616382876602      4.87761907123963      0.12202807845493
  C          -0.17941418938870     -1.02777503984745     -3.75736993740909
  H           1.55419747644073     -1.31962645334931     -2.49176567445285
  H           1.79265363675385     -0.13378623296479     -3.77134001810956
  H          -0.89638584497720     -1.40555538627913     -3.03271376255406
  H           0.07698385501072     -1.82578252597391     -4.44935275787890
  H          -0.65297713900658     -0.22052128472858     -4.30988171055256
