22
Coordinates from ORCA-job NEB E -40.640829429860
  C           0.40814655017058      0.90548642758966      0.15716584007177
  C          -0.84420425313344      0.70668101140729      0.75708033596869
  C           0.46394732077816      1.61261547744153     -1.16933864510581
  H           1.22529702161630      1.16053775934061      0.82374279726062
  C          -0.91409591899282      0.63658209303840      2.28581099202172
  C           0.86641445978209     -0.98203761488676     -0.33712506519498
  C          -0.28713722793520     -1.32036004255425     -1.07526149109257
  C          -1.52198175911604     -1.42289226997535     -0.45937900817820
  O          -1.84473243172788      0.30768401669146      0.09834762780614
  N           2.09027103739667     -0.86143625532219     -0.96579095629338
  H           0.92902997539931     -1.33127460227844      0.68603115308791
  H          -0.25106506192168     -1.16462598934808     -2.14528601491617
  H          -1.58370693465129     -1.83018558210081      0.53914523621932
  H          -2.39784670572400     -1.58419398494172     -1.06672079875240
  H          -0.42570442571581      1.39376499885133     -1.75245850893397
  H           1.35340448841625      1.32508877141473     -1.72374755495651
  H           0.50707150499588      2.68688840361135     -0.99178639364198
  Cl          0.30765879719825     -0.45606269204776      2.99787003407566
  Cl         -0.59812755246623      2.26791167125782      2.93624458309131
  Cl         -2.50902990935958      0.10432996244364      2.82283586869036
  H           2.11465498477430     -1.01927441118283     -1.95843061293333
  H           2.91173604021616     -1.13522714844964     -0.45894941829419
