22
Coordinates from ORCA-job NEB_product E -40.667265365240
  C           2.80971840509070     -1.36678211155833      0.02947578032915
  C           1.50842595345452     -1.25929239442892      0.77044142371682
  C           2.80623558272172     -0.36199386506370     -1.12408477406341
  H           3.65572004220768     -1.16541471624089      0.68896703109012
  C           1.63649720935326     -1.10176907748357      2.30328360179732
  C           2.96484470018465     -2.84771585488013     -0.44948336479258
  C           1.89336652434008     -3.22896834052392     -1.43210506388743
  C           0.88607846207362     -4.03285259039685     -1.14901044543025
  O           0.42497791812606     -1.27480028387831      0.26311100669345
  N           4.31697157643869     -3.01301474187563     -0.95838066939183
  H           2.87879552518879     -3.48230900190031      0.43966865936875
  H           2.00693289828420     -2.81992857236682     -2.42748903490710
  H           0.75651693948968     -4.45425505149623     -0.16557375373215
  H           0.14279192435704     -4.29508655449031     -1.88190283199341
  H           1.92529789326901     -0.49927045455306     -1.74476443793984
  H           3.70290490118020     -0.47785119807652     -1.72520426950329
  H           2.79167084637562      0.64954035261562     -0.72473076130145
  Cl          2.67191183419375     -2.36349862944887      2.99069858702508
  Cl          2.38333070250543      0.48972521605662      2.58652162339296
  Cl          0.05216645712696     -1.15375261212682      3.08095049879899
  H           4.40632461948644     -2.59384002300216     -1.87766671744528
  H           4.54241908455188     -3.99666949488087     -1.04332208782464
