24
Coordinates from ORCA-job NEB E -52.886273015130
  C          -0.07636717636784     -0.16390378795949      0.89984777112833
  C          -1.30591581370360     -0.52738075510001      0.31005514084052
  C          -0.09384169912914      0.97924383323386      1.89338889145299
  H           0.57543013492458     -0.94953553382582      1.26318851410622
  O          -1.54293168389067     -1.78058899253378     -0.16021158938288
  C           0.77346195301833      0.45064375597683     -0.79091221513286
  C          -0.10996093657185      1.43022676605095     -1.26284550278304
  C          -1.41992292856229      1.02463978808105     -1.59345838701129
  O          -2.07069801659155      0.37654234603731     -0.15916566090646
  C           2.21748380897993      0.80294674505203     -0.55894978341136
  H           0.71109831427576     -0.52444287765698     -1.26911340090108
  H           0.06430635137253      2.46102347101815     -1.00032195543338
  H          -1.53651463073706      0.13416133220024     -2.20248767384938
  H          -2.13650103985368      1.80166032125077     -1.81811385301685
  F           1.11943141827590      1.10793510090765      2.48257535938160
  F          -0.39643065091947      2.18439562946694      1.37577518659259
  H          -0.82049518677157      0.78705069145972      2.70353753642041
  C          -0.76264648594821     -2.86708128622488      0.29109923772428
  H          -1.26122894141957     -3.75896912474221     -0.08442326024703
  H          -0.72529260845273     -2.90485319473903      1.38292994918717
  H           0.25458791553883     -2.82808873743705     -0.10797983792615
  Cl          3.05304166254793     -0.42662152079656      0.41937985837345
  Cl          3.00898245555457      0.79982553046814     -2.17606533645063
  Cl          2.48092378443090      2.39117049981215      0.16227101124482
