24
Coordinates from ORCA-job NEB_product E -52.936782406920
  C           2.86056936698171     -0.10894863558190     -1.21588425114258
  C           1.49332348863210     -0.68577795613979     -1.61560068215837
  C           2.64702262926488      0.91405950140878     -0.08547756795580
  H           3.49218776262912     -0.89422768105355     -0.78888157340360
  O           1.43741148343104     -1.93452880033070     -2.07331375949051
  C           3.52790376517004      0.38699656491279     -2.53019648733510
  C           2.93027909193814      1.66393814949546     -3.06504216576968
  C           1.91040311954103      1.67568144292762     -3.90110405921820
  O           0.48848756562553     -0.03574067870834     -1.55057004740700
  C           5.05162108792400      0.50427034322050     -2.42105688622148
  H           3.34891895790678     -0.39446123820190     -3.27980556707986
  H           3.37622538443628      2.58340029718046     -2.72064252109999
  H           1.44143949161435      0.77194130558626     -4.25387915053235
  H           1.49191343668305      2.60022540192880     -4.25573207666940
  F           3.57547832396612      0.71669370116313      0.88569814214426
  F           2.76100947389858      2.20286591510481     -0.44886365102826
  H           1.65295236216383      0.79357014945239      0.37377717614712
  C           2.52010476369826     -2.85055203538729     -2.02834305388022
  H           2.12927088866579     -3.76759764511754     -2.46638054066036
  H           2.82598513033417     -3.05000173403021     -0.99895714317392
  H           3.38108345947114     -2.51280186621442     -2.60720163842569
  Cl          5.77208114550015     -1.06989447976179     -1.97034590248714
  Cl          5.68927066159156      0.93771177316526     -4.03115083103079
  Cl          5.59475715893235      1.71597820498115     -1.25304576212109
