22
Coordinates from ORCA-job NEB E -41.194954146580
  C          -1.04914766445226     -0.05458887303789     -0.24559038530813
  C          -0.24547164668384     -0.61201714616999     -1.28479514295633
  N          -1.57135420581363      1.24469591828590     -0.38222898434868
  H          -1.74448181731250     -0.73535221399782      0.23827448763329
  C          -0.05018963298894     -2.11874830801469     -1.29342648087355
  C           0.29142488424683      0.18792806219316      1.05685491585347
  C           1.20463970305480      1.01196938840157      0.37524183362430
  C           1.91911097874722      0.49218430557893     -0.71982302051739
  O           0.66643390217764      0.12117043654359     -1.82311804733246
  C          -0.44748617523720      0.75390957633841      2.24182773603253
  H           0.60028396194583     -0.84235552234963      1.20549781471494
  H           1.05165316062826      2.08085777954592      0.42879379657316
  H           2.35304039473859     -0.49602220755234     -0.62110746908556
  H           2.52577544374812      1.17297785022024     -1.30060136490781
  H          -1.09134138850231      1.75912797960268     -1.11077514255990
  H          -2.57128547588414      1.26110096512926     -0.51640310324312
  F           0.36356021739067     -2.56521277455917     -2.48222437372796
  F           0.85706726001015     -2.57505893888714     -0.39056863654398
  F          -1.19362067282514     -2.76825488057566     -1.00464261794493
  H          -1.23868093819478      0.08340689370910      2.56573118946525
  H          -0.88039527857571      1.71897095637628      1.99531200337237
  H           0.25046498978234      0.87931075321929      3.06777099208049
