22
Coordinates from ORCA-job NEB_product E -41.218506462350
  C           2.34680134257829     -0.19430629884685      2.06536450126801
  C           2.71726840772728     -1.64379372770868      1.82143511277797
  N           2.35670341104608      0.43518003016122      0.75475899893454
  H           1.33507969540456     -0.11296629665000      2.47537786893786
  C           1.47949919327449     -2.58311594712821      1.69843986729716
  C           3.35691355325450      0.48855175878427      3.00279833339493
  C           3.09589792505081      1.96459081581263      3.02859399338008
  C           3.98632635362230      2.88127359930439      2.70340968825121
  O           3.81692704517288     -2.06595540537276      1.59438664082775
  C           3.24070110705862     -0.10222107566296      4.40911479471605
  H           4.36248187210514      0.30046999263396      2.61434250649343
  H           2.10478164153626      2.24890663558449      3.35353678089988
  H           4.97975116810161      2.61850870133628      2.37842956207940
  H           3.76401097520608      3.93319755650840      2.75014778524625
  H           3.28033032023885      0.40430909501041      0.33895619210788
  H           1.68149114699801      0.02401377763618      0.12160120141553
  F           0.64924381397093     -2.16056671233002      0.72601351759171
  F           1.80323486523538     -3.84337592244878      1.42651105112023
  F           0.76770585465135     -2.58238491643338      2.83660407588296
  H           2.24077036934283      0.05296375348618      4.80831495339033
  H           3.95517550889829      0.37902712744634      5.07167798654737
  H           3.44720442952547     -1.17020654112312      4.39568458743945
