16
Coordinates from ORCA-job NEB E -27.308566718310
  C          -0.57629188881837      1.60084217609735     -0.67046212875341
  C           0.15091968957816      1.42380946354199      0.52476829861991
  C           0.16157826179839      1.43508842303847     -1.83046929352852
  H          -1.30152308629556      2.39906304507380     -0.71214804527358
  O           1.06780488986008      2.26114929138171      0.94649324985629
  C           0.48344773696459     -2.02433952205292     -0.68207821119750
  C          -0.03108607625637     -1.88587211738353      0.52664835521755
  C          -0.85115076329585     -0.68918218243515      0.91619753290564
  O           0.02724378797647      0.37997299330499      1.31193274110360
  H           1.08995349027927     -2.87496724706583     -0.94093030528435
  H           0.32365211648979     -1.29294204791411     -1.45823890013339
  H           0.14946178127444     -2.61494359147891      1.30371563916639
  H          -1.48996479359931     -0.89370924959488      1.77675571610209
  H          -1.43076157856023     -0.31042757448534      0.05960865038855
  N           0.68919075730521      1.13441155671083     -2.81432304458929
  H           1.53752567529929      1.95204658326150      1.74252974540002
