16
Coordinates from ORCA-job NEB_reactant E -27.383616715070
  C           1.81798858282163     -0.41515481844861     -0.07599559210985
  C           1.77087009908731     -0.63404791994882      1.25245736235186
  C           1.28143309571958     -1.20115796162545     -1.09458310994606
  H           2.30459412358143      0.49349471185948     -0.39853974092787
  O           2.30787861920101      0.28057201066456      2.07894114344558
  C           1.99087352469137     -4.33915806540294     -0.28570553027999
  C           1.94029704919607     -3.69795536064541      0.86502953153130
  C           0.79138301656421     -2.83559209628901      1.29993167436652
  O           1.23445077853568     -1.64956058513045      1.95209622873178
  H           2.82674128711947     -4.96530585308931     -0.54482176354532
  H           1.20426929866421     -4.25634092921657     -1.01590863079106
  H           2.74138597064265     -3.77343707792485      1.58887728518064
  H           0.21128494518339     -3.35207220125512      2.07304285414501
  H           0.13438307049015     -2.59555199672007      0.46040869156842
  N           0.85669437321391     -1.79540529658001     -1.98318513762673
  H           2.18857216528792     -0.01332656024743      2.99275473390575
