18
Coordinates from ORCA-job NEB_reactant E -30.252198592650
  C           1.80776044670226      0.00890757591696      0.01837423813105
  C           1.10966276927411     -0.14072762751097      1.13377144446129
  C           2.12417954480107     -1.11328091466968     -0.91403534267641
  H           2.16622815899134      0.99517171288603     -0.22592771370348
  F           0.86694528200194      0.93320037776632      1.92752001221160
  C          -0.22722887772566     -3.36658441812396      4.12982168260549
  C          -0.61991868000855     -2.64867923708497      3.08661234722094
  C          -0.13307266508230     -1.26537116775058      2.81223881387406
  O           0.59220311888851     -1.29464808742295      1.58223475806113
  O          -0.63233420865045     -4.61743838166604      4.42853136126082
  H           0.45992217714277     -2.98879752385097      4.87345990827924
  H          -1.30058527870433     -3.06126906426847      2.35457911225905
  H           0.51741360688544     -0.91703655010524      3.62310648075896
  H          -0.97930439963395     -0.57067012157033      2.71663800389506
  H           1.70910307163988     -2.04253427990271     -0.53623482075956
  H           3.20276211822318     -1.22246999280308     -1.02096793423564
  H           1.71014580793967     -0.91269115965986     -1.90161699643249
  H          -1.23518199268494     -4.94218114017950      3.74689464478889
