20
Coordinates from ORCA-job NEB_reactant E -33.561843356290
  C           2.52198810731987      0.88289177816425     -0.84360673553348
  C           1.38952304845099      1.52380494867785     -1.11335426690939
  F           3.44748864236967      1.27785548604687      0.05873160361281
  H           2.80425116290793     -0.03004117031109     -1.34011323459593
  C           0.43426426055482      0.97044864431202     -2.14451831018492
  C           3.08019343303956      4.22914075421457     -1.54326775800931
  C           2.84212789363394      4.08708852921463     -0.25108857912512
  C           1.63882178041180      3.40896268261748      0.33795745707945
  O           0.86878690412468      2.66434078873270     -0.59332150380343
  C           4.28501308291766      4.89782586265586     -2.11144266846182
  H           2.37658891765848      3.84383034026978     -2.27028005590425
  H           3.53519288991361      4.46786742365185      0.48553032825564
  H           0.93868273592923      4.16132619274590      0.71958589361545
  H           1.94400068320955      2.77360522375952      1.17792494826703
  F           0.88013806455057     -0.19980031484272     -2.68815710160658
  H           0.30712835614400      1.68561186880161     -2.96525007971406
  H          -0.53984629550203      0.77038810642965     -1.68428336320927
  H           4.84584632790708      4.19631841427098     -2.72838437071326
  H           4.93419621490823      5.26822195750488     -1.32248314248690
  H           3.98711378955033      5.73121248308342     -2.74707906057264
