20
Coordinates from ORCA-job NEB_product E -33.562770413300
  C           2.09227158087718      1.97938478656909     -1.01444362815810
  C           0.88913442086409      1.85270919505285     -1.96294134437238
  F           1.75029625174681      1.35627603715112      0.16851259054347
  H           2.96898238921002      1.44147151667301     -1.39727828945531
  C           1.18904697020920      1.01722476725314     -3.19583991713031
  C           2.41215035652582      3.45972936993312     -0.74797051862227
  C           3.54404733581542      3.56080177390616      0.23242975192529
  C           3.42896279532979      4.06487455590617      1.44544035807408
  O          -0.17040400595548      2.35610893790666     -1.73375176086891
  C           2.76892684947278      4.15913875091648     -2.06020578048902
  H           1.51252964690343      3.91218807911870     -0.32024820701687
  H           4.49372466498144      3.18122567495949     -0.12219430872697
  H           2.48947247575458      4.44008950803732      1.81550317519958
  H           4.26555137557811      4.12044693397676      2.12029994193553
  F           0.15631954227100      1.03557164318170     -4.08435110119132
  H           1.35148637071926     -0.02584137487629     -2.89580774373630
  H           2.07767385577492      1.39851583659806     -3.71291166354465
  H           3.62654583489018      3.68092501160409     -2.53052453624731
  H           3.02347473950618      5.19679271758421     -1.86084722690173
  H           1.93010654952529      4.13946627854818     -2.75226979121651
