22
Coordinates from ORCA-job R E -28.211460134720
  C          -1.41368232867273     -0.19446849123700     -3.09442372610559
  C          -0.20104701786969     -2.64529565825750     -1.76626387613174
  C          -1.36935879808345     -2.08261225192907     -1.47313031951172
  C          -1.94209773099734     -0.90236897488379     -2.09790308281712
  C          -0.77560187604267      1.69769624036856      0.46113438023078
  C           0.01703258787342      0.74559622143655      0.01173228257165
  H          -1.98142626010923     -2.52868282582117     -0.69812423562060
  H          -2.90138771189978     -0.59609645342057     -1.69541812967576
  C          -2.04940871337977      1.01204555234022     -3.70011470273935
  H           0.14914867576763     -3.52260329252362     -1.24964297844080
  H          -0.45862117565823     -0.47104063454827     -3.51894336595803
  H           0.45513689286828     -2.24907571002443     -2.52138318789964
  H          -1.60282163436627      1.45102113027165      1.10177820821584
  H          -0.11882659157877     -0.30160572448065      0.23311419769293
  H          -0.63088657469264      2.73551127653785      0.21888922995431
  Cl          1.35777753111043      1.04634195857917     -1.01560949776542
  C          -1.11742644838674      2.22193839127974     -3.63987087824627
  H          -2.98540746610846      1.23719755876314     -3.18448560630590
  H          -2.28143911945053      0.80297644747056     -4.74970541232102
  H          -0.87909697704155      2.46343452081549     -2.60711153294368
  H          -1.58682462336783      3.08874037352875     -4.09975457373416
  H          -0.18816463991409      2.01405034573439     -4.16556319244871
