22
Coordinates from ORCA-job TS E -28.194949936220
  C          -0.37258217090567     -0.04646040454941     -0.64893951364588
  C           0.95954058843506     -2.21136383521778      0.69732726598919
  C          -0.37467337649128     -2.21383736256476      0.45948863484293
  C          -1.02626227675886     -1.16875566824645     -0.22744110169862
  C           0.25677433583193      0.65948829649108      1.36123402117654
  C           1.09971537936870     -0.22960392794099      1.94183856832346
  H          -1.00008100877035     -2.94184515131707      0.95945065863094
  H          -2.10881363291636     -1.17121362955779     -0.23151125600548
  C          -1.11292135862074      1.09972343147964     -1.28147052507826
  H           1.40370879841961     -2.96374532465168      1.32863479007305
  H           0.67860742359666     -0.10131510185335     -0.88555498692996
  H           1.64471906325549     -1.68577358858573      0.05880386081295
  H          -0.76147442517872      0.70613886973072      1.70300200583222
  H           0.82287813564999     -0.88532923681158      2.74760839323692
  H           0.64609951761932      1.52642735027340      0.86092699543494
  Cl          2.81713545582754     -0.02192374165873      1.78464406619099
  C          -0.18499715806928      2.14587376138492     -1.88751384941518
  H          -1.76772936190016      1.57107221137497     -0.54342400957258
  H          -1.76134914697639      0.70319398318956     -2.06931040474545
  H           0.45162191899203      2.59331152967426     -1.12755199609545
  H          -0.76224354719748      2.94046227528848     -2.35487324423340
  H           0.45232684678899      1.69547526406829     -2.64536837312386
