21
Coordinates from ORCA-job NEB_reactant E -44.876364533830
  C           1.17530415090173      0.20064893070117     -0.15678923548875
  C           1.03616327543093     -0.99982049088655     -0.71818560201678
  O           1.64347930286162      1.26305077145548     -0.85192854392466
  H           0.91945938641389      0.34680917699345      0.88529049420781
  Br          0.26800370990175     -2.40337348383736      0.36115358571649
  C          -0.80473835881717     -0.20542728387232     -4.44096555814354
  C          -0.49109544905031     -0.55220911361006     -3.20305652886521
  C           0.37387425180991     -1.72126034141680     -2.85577309732843
  O           1.41395487037455     -1.35577389030852     -1.95547704433283
  C          -1.65990383490054      0.94780400357213     -4.82137833972958
  H          -0.45373291962396     -0.77595403439317     -5.28966642165764
  H          -0.84198043754860      0.02668097714604     -2.35973064057210
  H           0.88088121863912     -2.12380596232355     -3.73363210530808
  H          -0.24282797373960     -2.51193595966358     -2.39881626090394
  C           1.84100643154843      2.44070669148128     -0.10124930524866
  H           2.16700537130414      3.19820649638849     -0.81079037871313
  H           2.61268964402078      2.29974041615640      0.66179120258635
  H           0.91262866206146      2.76600536003386      0.37870028848176
  Cl         -0.76542104992028      1.99422713194642     -5.96279245917531
  Cl         -3.12603990330229      0.34443441131309     -5.65686531792318
  Cl         -2.17411034836556      1.93854619312412     -3.45283873166059
