20
Coordinates from ORCA-job NEB_product E -53.234031423100
  C           2.84049731837294      0.52689828722972      1.13019902360178
  C           1.37225087711439      0.80625135714791      0.89662315770030
  C           3.12371729812899     -0.91748574447607      0.68785967872002
  H           3.45712192031018      1.16015104484156      0.48164493936578
  I           0.97267341345104      2.91438460974232      0.67855755122503
  C           3.12804196557569      0.90420285817919      2.60825878600941
  C           2.17380078363961      0.23095813431850      3.56284253357030
  C           1.29033323073624      0.90391485822909      4.27488885953410
  O           0.48976270908885      0.02998422613787      0.85600128503911
  C           4.58040653801774      0.69951098972474      3.05981404476068
  H           2.96393304181332      1.98870539066308      2.66707420302913
  H           2.24623858515552     -0.84286276588143      3.63608588408896
  H           1.20419950014955      1.97739335805793      4.22150882250762
  H           0.61579061455974      0.40286260880904      4.94596811116552
  F           4.43238601252665     -1.14473208897368      0.54571132826397
  F           2.63972452196092     -1.85509579987265      1.49705855828546
  F           2.58671689905293     -1.12999244630301     -0.52375113696389
  Cl          4.78301543325858      1.58746866962266      4.59601388423333
  Cl          5.00111087996663     -0.99701437042457      3.36101614223377
  Cl          5.72117845712048      1.38529682322781      1.87582434362964
