20
Coordinates from ORCA-job NEB_reactant E -52.657169264710
  C           1.93806525767769     -0.49338561086087      0.18884852411905
  C           1.53706105141667     -1.25381524304356     -0.82496696964796
  I           2.33186693467227      1.53654671111494     -0.05665645828527
  H           2.06446906224240     -0.86778278950885      1.18837758471832
  C           1.23013629478393     -2.72250617463947     -0.58095640194643
  C           2.57900135250998     -2.61795009769087     -4.55797456679176
  C           2.88868786032990     -2.06989493387064     -3.39342857324305
  C           2.41816515536174     -0.70976327301845     -2.97912516683293
  O           1.30861499198570     -0.77694413804287     -2.07348141589065
  C           2.95549184517130     -3.98862426900433     -4.99010971888737
  H           1.98880951923131     -2.08403273598084     -5.29006256441675
  H           3.47137928073873     -2.61476520933826     -2.66448562514659
  H           2.02487861336791     -0.15043313912919     -3.82931443416119
  H           3.24294271877204     -0.15154959724002     -2.52015535960819
  Cl          2.75334052235159     -3.61079062228279     -0.25734044083284
  Cl          0.18452860207849     -2.91344016021252      0.84641797359101
  Cl          0.42511787909390     -3.45591729910444     -1.97266753475403
  Cl          1.45670906945247     -4.92997318834450     -5.26160185392215
  Cl          3.84925293741902     -3.90145380070285     -6.53619254978663
  Cl          3.95168105134293     -4.86142442909965     -3.81962444827460
