19
Coordinates from ORCA-job NEB E -35.954471123840
  C           0.46731702435565     -0.70303702578834      0.65724199870903
  C          -0.76407854420368     -0.92755534331957      0.00272901560991
  C           0.42667605698990     -0.06275345303330      2.01842639514902
  H           1.17767914855908     -1.52463720902309      0.57847619653443
  N          -0.78987220157396     -1.90493035370637     -1.05481873325556
  C           1.14941155318637      0.57396232322922     -0.53133141573059
  C           0.15985182833102      1.55942674874489     -0.56584130346229
  C          -1.15401944207415      1.17573921950466     -1.02970624568738
  O          -1.63215611549611      0.04754506123215     -0.09832059329194
  Br          2.88216884740196      1.08924929883075      0.11372885244199
  H           1.28340597839374     -0.07239721392115     -1.39261627294559
  H           0.25283279824418      2.41721455556346      0.08372245232523
  H          -1.18999049812825      0.71824636811538     -2.02091629626108
  H          -1.91285636753711      1.94517537143916     -0.92613682952378
  H          -0.34917222435829      0.69710419712988      2.07014581630806
  H           1.38450241973569      0.37133027492689      2.29187987747763
  H           0.19554896381676     -0.84082819054129      2.74468060236366
  O          -1.63967671645245     -1.77190614303011     -1.91449260234127
  O           0.05242749080966     -2.78694848635320     -1.02685091441947
