22
Coordinates from ORCA-job NEB_product E -56.947139874820
  C           1.31230299660928     -1.75000581675845      0.95225014937678
  C           2.63764382143560     -1.94270144191741      1.69303473761669
  C           1.53150560923795     -1.24897110467476     -0.48704292167290
  H           0.91620635950211     -0.85514185588824      1.45964538851645
  N           3.68412230355120     -2.80420943570324      0.99281468477532
  C           0.21051240016735     -2.82211766273059      1.24896846963514
  C          -0.93580620212130     -2.73285797147373      0.27413820217964
  C          -2.12566791946199     -2.26782526268116      0.60765528632849
  O           2.93203840559896     -1.40503149101994      2.70778758140549
  C           0.58783407952595     -4.29887953128209      1.42821199027237
  H          -0.17072087079292     -2.53509600445220      2.24021353040118
  H          -0.75224555251968     -3.11417678469253     -0.71979860436374
  H          -2.34452295927747     -1.89922974154366      1.59625251069380
  H          -2.92771470398380     -2.23180228358560     -0.10706418010830
  Br          0.09792523831415      0.01622922993089     -0.94401194267579
  Br          3.21027527832011     -0.17367843889131     -0.46104686161876
  Br          1.65839017556027     -2.47489696220037     -1.97405959987330
  O           4.79299580833744     -2.75426558829245      1.43517891320374
  O           3.28378134941887     -3.45818097445700      0.05503994430907
  Br         -1.00332616494246     -5.18012474216038      2.18539534178957
  Br          1.06254860935819     -5.30916228806647     -0.15259967584319
  Br          2.00472193816220     -4.52927384745931      2.78723705565225
