22
Coordinates from ORCA-job NEB_reactant E -56.964605821440
  C           1.44432754879178     -0.45058523399738     -0.18322671857744
  C           2.08019714409328     -1.60907496807937      0.06075819916314
  C           1.98137329170347      0.80220741707208     -0.76373205877939
  H           0.39397720679588     -0.40314195033187      0.07229657480197
  N           3.50133046650351     -1.84119827520300     -0.22733573966658
  C          -0.85093397876825     -4.40238614028778      2.50446886510425
  C          -0.06260009060088     -4.15105052348078      1.47225839167188
  C           0.19821809678909     -2.77289974847393      0.95428907435505
  O           1.56486575309609     -2.71770249311264      0.58496618201495
  C          -1.17994938405180     -5.74013578076059      3.04437334565855
  H          -1.34498742877563     -3.59866888594331      3.03828563877334
  H           0.45039475200411     -4.93426706519804      0.93205855853133
  H          -0.02543637778309     -2.01290964044643      1.71351791050206
  H          -0.43183446401943     -2.59234795094868      0.06977501685609
  Br          0.53672804315070      2.11830184856513     -0.86769193436568
  Br          3.38910851910285      1.60860293051321      0.35220057714493
  Br          2.64642871785902      0.56179932460756     -2.60132732377361
  O           3.93990785312283     -2.92975903003748      0.02538851038445
  O           4.11105087474840     -0.90896259591045     -0.69853287253860
  Br         -3.13568716348873     -6.00261590119061      2.93450326978255
  Br         -0.32647654977897     -7.22321573946194      2.13416391192654
  Br         -0.66550283049421     -5.80868959789368      4.94704262103020
