21
Coordinates from ORCA-job NEB E -45.127772133600
  C           0.30186528535337      0.94977556033420      0.51443221208411
  C           0.22408891992364      0.38685863099046      1.79503870411032
  O           1.51960615578079      1.02985019636279     -0.07392856215245
  H          -0.39506209505968      1.74610671276959      0.26595484577508
  I          -1.63169926263728      0.86090917471923      2.83003513250392
  C          -0.44628142966545     -0.73758602376529     -0.48526891317289
  C          -0.58126217958029     -1.76381606412167      0.44237704652729
  C           0.54163993556493     -2.10782913488932      1.20316625071252
  O           0.83239870605399     -0.63161990288820      2.16575981466222
  C          -1.66306081106929     -0.28389950741678     -1.23836186912156
  H           0.44787336424335     -0.72149115130322     -1.09741374091006
  H          -1.56548181521020     -1.96781379330902      0.84485612197510
  H           1.51063248993844     -2.09455651416325      0.72265053345691
  H           0.43434745725559     -2.83754723443608      1.99160002230715
  C           1.63352366229357      1.96493965498128     -1.13118080452353
  H           2.65123649751791      1.87195453513112     -1.50381173847447
  H           1.46772645456215      2.98327487277533     -0.76928310628454
  H           0.92473643638004      1.75052530570966     -1.93532187991853
  F          -2.74137142947683     -0.12007251203407     -0.46936970701643
  F          -1.46181235592547      0.88710831961526     -1.87382230386885
  F          -2.00364398624327     -1.16507112506201     -2.19810805867132
