21
Coordinates from ORCA-job NEB_reactant E -45.160519670690
  C           1.09408710529538      0.03495703582751     -0.17163939140749
  C           1.03832122181432     -1.14718942145620      0.43805318594678
  O           1.55214433279965      0.16088738862499     -1.43959614498588
  H           0.76961712085254      0.93249737481217      0.33896889433032
  I           0.17793932672751     -1.21985044479450      2.39629779267001
  C          -0.78877851836849     -3.79616540496730     -2.40707888910098
  C          -0.26474850372162     -2.92514338259067     -1.56068943950279
  C           0.55629523631738     -3.29698741992217     -0.36838752195703
  O           1.51574275478291     -2.30740474914614     -0.04494494704148
  C          -1.61925981637804     -3.38436541367888     -3.57993947067681
  H          -0.66544148658136     -4.86435692261008     -2.31447616752962
  H          -0.41315923857022     -1.86284220128504     -1.70629901678269
  H           1.12278488596561     -4.21390510720403     -0.54244711122849
  H          -0.11187937684437     -3.45578912909835      0.49560535524763
  C           1.72556628327407      1.48421360664159     -1.89564148973174
  H           2.01038694231999      1.40712186461970     -2.94282886610770
  H           2.51813544304723      1.99338103601373     -1.33882300776612
  H           0.79770140000795      2.05853370865495     -1.81087221234772
  F          -1.79081553470100     -2.05961327337648     -3.67585165275543
  F          -1.07703876925793     -3.78552978846687     -4.74383284753273
  F          -2.85000080878151     -3.92674935659794     -3.53777705174005
