17
Coordinates from ORCA-job NEB_product E -33.721586976300
  C           1.60091671546302      0.39018482508718      1.64724326501485
  C           1.11317864040113      1.08828516635300      0.40853275639091
  C           1.15165753227644     -1.07227127775209      1.57167136658091
  H           2.69616753165431      0.44480904789868      1.65658200491425
  F           1.68448127828427      2.31708506744915      0.29202060536324
  C           1.06064471173618      1.17765075940896      2.85993644588575
  C          -0.37588020981579      0.92251364379543      3.15012772579887
  C          -1.30342980508545      1.85864707615602      3.06290016065313
  O           0.33844017617240      0.72716684410038     -0.40232189851527
  I           2.23816641028970      0.74910584911705      4.65245174381034
  H           1.23321641739944      2.24195300954042      2.68816229798888
  H          -0.62538300227850     -0.07908465359311      3.47083927721561
  H          -1.07011664325881      2.86791927863336      2.76394962962050
  H          -2.33559792662905      1.65175951528511      3.28397129019968
  F           1.49386080556731     -1.75317617384417      2.70316857533937
  H           1.64174474053724     -1.57453374342562      0.73119635905588
  H           0.06563262728617     -1.14441423420974      1.45676839468308
