17
Coordinates from ORCA-job NEB_reactant E -33.703642239720
  C           1.76009309310891     -0.02759487209764     -0.00569283008599
  C           1.06445355956276      0.84736291652141      0.70844738648956
  C           2.11675897535302     -1.38672369856539      0.49578897796140
  H           2.12301563424430      0.26353407608771     -0.97662799140931
  F           0.79035466288728      2.06657441367894      0.19940100711553
  C          -0.33939622105251      1.80743737354883      5.04864549644067
  C          -0.58279623160749      1.20070920579819      3.90371372845103
  C          -0.08120047224800      1.71093385985999      2.59031787578126
  O           0.54383131777493      0.62064236656483      1.91818594906425
  I          -1.07876760803026      1.11925551670246      6.88685015082462
  H           0.23712118542712      2.71354589543310      5.13171926509230
  H          -1.15678982535078      0.28754933925567      3.85170867808558
  H           0.63168837298091      2.53269099790820      2.72957175749339
  H          -0.92659039749767      2.07861913657380      1.99057198193138
  F           3.48681336442809     -1.53873698437035      0.53682783039376
  H           1.74764566645049     -2.17103027170035     -0.17537891963552
  H           1.74706492356890     -1.54486927119939      1.51214965600609
