27
Coordinates from ORCA-job NEB E -43.915036708720
  C          -0.38271105770384     -0.52252122472303      0.55200163103257
  C          -1.62957818460723     -0.63242202016158     -0.05875302398846
  C          -0.25343023306327      0.29523671068002      1.81906772153081
  H           0.22352755956806     -1.42192273697861      0.53789598610570
  C          -1.88611882284429     -1.85412784180490     -0.94080736161257
  C           0.54197759522728      0.67256905247757     -0.87483353997149
  C          -0.50010360439298      1.18019438794429     -1.66025266410376
  C          -1.61221287515433      1.75768881668647     -1.05855522347206
  O          -2.40920923008882      0.36601742607242     -0.21092826757080
  O           1.45066814053633     -0.09596724675339     -1.51640432172161
  H           0.93205929761610      1.29178340972443     -0.07287830905380
  H          -0.62247686430498      0.70724514112041     -2.62572634175980
  H          -2.43728060138323      2.06528357221390     -1.68148403686330
  H          -1.47528229672988      2.36156640475414     -0.17290608162623
  C           1.14048183058342      0.28254816981110      2.43532835707839
  H          -0.94437635599685     -0.14975802716318      2.54210766718535
  H          -0.59045649568699      1.31915185921465      1.65447896553623
  H           1.47877368997452     -0.73998544162509      2.58897204703851
  H           1.11828741175529      0.78006894146196      3.40212147182335
  H           1.87034044235043      0.79649835986200      1.81399545183826
  F          -0.98332175742883     -1.96052065379256     -1.95231165883048
  F          -1.75487912731832     -2.99773026139913     -0.21667649487593
  H          -2.89307631884974     -1.83524228394956     -1.38107919038972
  C           2.66211972312318     -0.35827749444270     -0.84863424015016
  H           3.15578581597892      0.56918503586575     -0.53906842152305
  H           3.29374572597476     -0.88266085483839     -1.56279544206499
  H           2.50674659286528     -0.99390120025699      0.02812532040905
