27
Coordinates from ORCA-job NEB_reactant E -43.950678996520
  C           2.11841404003563     -0.02374389383862     -0.37049254395730
  C           1.58583784610710      0.21255005267954     -1.56595861828363
  C           2.04024510518843      0.89713845809788      0.80322066020013
  H           2.66586441386725     -0.94436662981401     -0.22423927694337
  C           1.73806744868239     -0.82586359579150     -2.67199547331954
  C           3.59465093803409      1.87770382063742     -3.56884517880267
  C           2.33169611407449      2.28920619949578     -3.54625077121265
  C           1.58196485237730      2.48134854819574     -2.26750694101441
  O           0.83720675012466      1.31374694459561     -1.87715486404801
  O           4.27433245812406      1.67498177818113     -4.71999181984030
  H           4.15124442660082      1.70768303674742     -2.64946403975859
  H           1.78993885615693      2.40964603765432     -4.46974156336972
  H           0.81590649860383      3.25115670814611     -2.37214127443377
  H           2.27048153051809      2.75444215431426     -1.45789770975162
  C           3.42548140845392      1.41086453455990      1.19838073912959
  H           1.61474491284189      0.34684328634472      1.64648179658288
  H           1.37704712800273      1.73127612987815      0.57307415533739
  H           4.08533218851167      0.58016004447262      1.43807127089928
  H           3.35280442100968      2.05794371535756      2.06885419957880
  H           3.87136763954893      1.97778247085190      0.38389146955292
  F           1.21703410063113     -0.41155985522486     -3.83987729435966
  F           3.05957252237233     -1.08403758527243     -2.90701174890370
  H           1.26784704556583     -1.79031430589826     -2.41680868488791
  C           5.51737824827132      1.02596889038618     -4.58547722065992
  H           5.95224181834096      0.98643506288480     -5.58232792741898
  H           5.38890882327650      0.00850670296899     -4.20276538206267
  H           6.18658846467804      1.58020128938963     -3.91782595825256
