21
Coordinates from ORCA-job NEB E -45.507962693470
  C          -0.65787704007902     -0.79189722817971      0.66644826848642
  C           0.56280912696225     -1.46636718407711      0.69303452550705
  C          -1.62602114084685     -1.10820428504480     -0.44429066018324
  H          -1.13266281255787     -0.63127001545102      1.62623538035787
  O           1.19383895975652     -1.57018577378404      1.89000533047024
  C           0.17200679361785      1.00623498944683      0.19686516381450
  C           0.84410956716785      0.71608879661921     -0.98772734291710
  C           1.90496689333646     -0.22355240605436     -0.93597624456036
  O           1.24524549752021     -1.65695619978360     -0.38108582054924
  C          -0.88758644854888      2.07093643912809      0.20582629025317
  H           0.75297953548208      1.04813204870000      1.11381906689347
  H           0.34685785953152      0.88479717945909     -1.92969635742305
  H           2.65083720130394     -0.07007390281514     -0.16121533169393
  H           2.33365856019467     -0.53352693764535     -1.87934212721316
  F          -2.84544576728817     -0.54341610401348     -0.19009294483491
  H          -1.79624251753048     -2.19056417180989     -0.49865500917041
  H          -1.28900499302761     -0.74614067137949     -1.42013561668743
  H           2.08573888326788     -1.92116432782699      1.75711243416011
  Cl         -0.02730778184103      3.65316992008961      0.28499012011119
  Cl         -1.89832160390227      2.09731351245090     -1.24262872063455
  Cl         -1.93257877251904      1.97664632197124      1.63650959581336
