21
Coordinates from ORCA-job NEB_reactant E -45.537154930840
  C           1.55482443774139      0.15778116112759     -0.12359765429358
  C           2.45695764299668      1.11149433948953     -0.37189075722550
  C           0.64581720670067      0.18050656422010      1.05610264487740
  H           1.51204361949219     -0.71249515259470     -0.75878031836007
  O           3.30786028961856      1.08083511403786     -1.43196962525481
  C           2.94313550370149      5.37878613585611     -1.07316389741860
  C           2.95548098320682      4.05560032981300     -1.08732970828323
  C           3.47548646100305      3.21947666339197      0.04187939772811
  O           2.56541792248271      2.19941758305005      0.41698988908813
  C           2.46402680876123      6.25108412207649     -2.17564012477840
  H           3.31340074256739      5.93407942218953     -0.22225824801703
  H           2.58294202984308      3.50207719463642     -1.93703198546328
  H           3.61347735156688      3.81787574413960      0.94459200921671
  H           4.43609706498918      2.77812388497846     -0.25427892949959
  F           1.00581036318408     -0.79571273926063      1.97216345731813
  H          -0.38859659099114     -0.04725589683795      0.77575314350050
  H           0.70414478725568      1.13695967809713      1.57987161847068
  H           3.20879909960078      0.24890863959324     -1.90713305794555
  Cl          1.18485866688509      7.33791873159194     -1.55707164426693
  Cl          3.82131945256718      7.26874267088088     -2.75217979895065
  Cl          1.81429615682699      5.36549580952338     -3.55922641044246
