17
Coordinates from ORCA-job NEB E -25.488676647950
  C           1.09676738504714     -0.18741816268265     -0.37450866575718
  C           0.51004456429539      0.79528821475825     -1.18704707420871
  C           0.68675003593105     -1.62450124546839     -0.58095717801793
  H           2.15798025051906     -0.06579362123454     -0.17161513947287
  H           1.02089171813333      1.75583138260554     -1.31061565316273
  C           0.25077789787018      0.33938382530978      1.24539729641701
  C          -1.11457035315008      0.22772056769507      0.96622536303121
  C          -1.62212747532768      1.08314980927905     -0.05056950395008
  O          -0.76924405058988      0.76039210692986     -1.40034131680817
  Br          0.97252013945242     -0.78149957191628      2.62551148866550
  H           0.67926239161718      1.32930846460964      1.35322018383238
  H          -1.60159927489972     -0.72029269761866      1.13999084223931
  H          -1.41063499181348      2.14376681603756      0.06209117288911
  H          -2.64221265525828      0.89886158629310     -0.36474278810942
  H           0.84020830003781     -2.22813623074717      0.31011741685473
  H           1.30049748323672     -2.04492675617592     -1.37685824472722
  H          -0.35531136510115     -1.68113448767423     -0.88529819971495
