17
Coordinates from ORCA-job NEB_reactant E -25.521529398690
  C           1.75737894516403     -0.00160381791670     -0.00430477723176
  C           1.08715051831639      0.88033481068487      0.72350586222285
  C           2.08643229456176     -1.38806554302709      0.44038078011181
  H           2.08780636712011      0.29267594461654     -0.98838633510191
  H           0.87233836408185      1.87796172989942      0.35648691253312
  C          -0.34445799679364      1.70482038754306      5.11519319202843
  C          -0.55762553669798      1.14301812688247      3.94020255295931
  C           0.01707479832291      1.66802961971825      2.66241832234414
  O           0.61339956638766      0.59260116126518      1.97553840972562
  Br         -1.10535203564970      1.04460638214713      6.71155466696193
  H           0.25535887782192      2.58852808764868      5.26584806909759
  H          -1.15655149794778      0.24947355331998      3.84213557896296
  H           0.75409128308121      2.45973209795879      2.86364088363580
  H          -0.79603987592814      2.10040475396979      2.05478277372042
  H           1.72918241766374     -1.55065907360269      1.45259200746835
  H           3.16360414031508     -1.54935029870150      0.41028817878896
  H           1.62280937018056     -2.11840792240618     -0.22237707822760
