17
Coordinates from ORCA-job NEB_product E -25.533100200160
  C           1.69265769282487      0.37351078933694      1.59393130821334
  C           1.23614328034232      1.12540543588693      0.36544995018480
  C           1.31847124361211     -1.10479006426639      1.48500922242255
  H           2.78975320529679      0.44974604449078      1.59379612818773
  H           1.43120002567101      0.56953397142639     -0.57245343119318
  C           1.16298476448389      1.06265471385709      2.85457936978237
  C          -0.29548783628636      0.87690579048476      3.08675013332203
  C          -1.15839486021058      1.87579979311401      3.07547552239170
  O           0.72924907137358      2.20969114230958      0.35293572292899
  Br          2.14875355998237      0.36643515466338      4.42884594745521
  H           1.41082399392817      2.12579125119240      2.81396898127313
  H          -0.61650212826704     -0.13580813727848      3.28840426269931
  H          -0.84997025314591      2.88977015863455      2.88271695973843
  H          -2.20974292184800      1.71502512828135      3.23953954735981
  H           0.24757302517636     -1.22439870708653      1.33824393752375
  H           1.61225594049159     -1.63250985143580      2.38969910998686
  H           1.83373219657482     -1.55996261361097      0.64250732772317
