24
Coordinates from ORCA-job NEB E -44.982202046900
  C          -0.00951361021225     -0.52885951822084      0.86364166206743
  C          -1.36882386018025     -0.57890130881752      0.55206028917933
  C           0.42227147586517      0.23943700628684      2.08592489615893
  H           0.55001455327349     -1.44164095294836      0.69148707253231
  C          -1.85149111305059     -1.75681580187230     -0.30541832740608
  C           0.64521185169564      0.70030021994938     -0.65298768491444
  C          -0.51735738198785      1.22937472819449     -1.23061529046220
  C          -1.47556187843689      1.82881847569807     -0.42378057697449
  O          -2.11803693762456      0.44708242718059      0.57592046715733
  O           1.43064422865835     -0.06175742774243     -1.44775041507638
  H           1.17237659218225      1.31404141553130      0.07312719688561
  H          -0.82763760920852      0.78158763639855     -2.16475599855790
  H          -2.40201303762827      2.15300371631272     -0.87043874928910
  H          -1.15453827013793      2.41724302780721      0.42379147930885
  H          -0.15015753525496      1.15625802594699      2.19153299087021
  H           1.48554666271996      0.46750763123216      2.07407759429132
  H           0.22697119928524     -0.38082778562879      2.96145713649909
  F          -3.13691079178725     -2.04683357268429     -0.07722532271554
  F          -1.74231454663888     -1.52285021153461     -1.62783366982838
  F          -1.15431657416254     -2.88293987330019     -0.06795969268976
  C           2.73592388790543     -0.32547916165658     -0.98398415053070
  H           3.25107126923503     -0.83167440465308     -1.79757058334526
  H           2.72431021945922     -0.97732574217051     -0.10497260750473
  H           3.26433120603095      0.60125145069120     -0.73772771565541
