24
Coordinates from ORCA-job NEB_product E -45.018057088650
  C           2.72917198035699      0.38718813887326     -1.46114991785317
  C           1.59477626886390     -0.15256838812220     -2.29065477805645
  C           2.19222854098060      1.22015813217661     -0.29807276856118
  H           3.33623005991540     -0.44225515127198     -1.08998159934669
  C           1.64190520290151     -1.69667745082762     -2.48662489103931
  C           3.62022310309720      1.23249935388372     -2.41292971792784
  C           2.95197426697077      2.51564522539985     -2.81938467407790
  C           3.42537085485075      3.71116764548413     -2.52218129750984
  O           0.68689370131505      0.47595253630654     -2.74804965367186
  O           3.87786370191293      0.39488439676352     -3.52662573717835
  H           4.56543341147547      1.45938363851437     -1.89016270071703
  H           2.05136278127472      2.39467175033614     -3.40392052966001
  H           2.92816796398989      4.61269117157714     -2.83584063352345
  H           4.32879998101763      3.83903135886188     -1.94708564273715
  H           1.50959353322949      1.98222167628845     -0.66398151601323
  H           3.01559831639503      1.70450272057034      0.21990957328957
  H           1.66294437956203      0.58081867894982      0.40410872546680
  F           0.77290423118619     -2.12431933064882     -3.39899809627529
  F           2.84770090868627     -2.15932026937106     -2.82490917307657
  F           1.32016766433472     -2.29256826033003     -1.31825269021464
  C           4.87477282207217      0.88268010965941     -4.39073315982734
  H           4.99237345377213      0.13187340833476     -5.16855565061713
  H           5.82473021854825      1.01238203620845     -3.85835952259519
  H           4.58601265329091      1.83895687238335     -4.83996394827674
