24
Coordinates from ORCA-job NEB_reactant E -45.020938312570
  C           1.98439949521601     -0.03060674800876     -0.21632788568523
  C           1.68121551621052      0.25330009972828     -1.48121230015244
  C           1.80324833712271      0.91122007009078      0.91963698984337
  H           2.36923553149911     -1.01314944508372      0.01639366975860
  C           1.90292496247735     -0.80677200715787     -2.54683354025501
  C           3.88616775405493      1.68290307978311     -3.84670818414624
  C           2.63004004415135      2.09198210764932     -3.70557519658057
  C           2.03817144488051      2.43042802777836     -2.37787247946979
  O           1.12377398734562      1.42880726478297     -1.89239623834820
  O           4.41590331750297      1.36989862162320     -5.04880049284232
  H           4.55492184196566      1.60567063294777     -2.99230421813331
  H           1.97724639947361      2.13170475208674     -4.56236296136922
  H           1.41488121852874      3.32468537988780     -2.44505242836678
  H           2.82691415657869      2.58518190209339     -1.63044225840653
  H           1.35138138196509      1.83908640578858      0.58131602206598
  H           2.76481123558889      1.12112381780356      1.38692776876398
  H           1.16319129026213      0.45602168607629      1.67352120938877
  F           1.29468684353311     -0.54142626136227     -3.69928363583422
  F           3.21607389345711     -0.98356627672358     -2.82747980313813
  F           1.46726763083334     -2.01671223983855     -2.14513607811660
  C           5.69103676133683      0.77020544707651     -5.01713118934987
  H           5.65482414756307     -0.20140052708254     -4.51449684553734
  H           6.42059060630601      1.41150220195865     -4.51074616389258
  H           5.98949220214663      0.63121200810200     -6.05433376019631
