18
Coordinates from ORCA-job NEB E -37.980364994710
  C           0.59706587153486      0.65969441589989     -0.45383217677979
  C          -0.71522877861895      0.59790525356245      0.21361632004745
  O           0.50358625127846      0.29097778774028     -1.81423727553431
  H           1.07182551377565      1.63936946648582     -0.33495263077880
  C          -1.32579267008201      1.72592437093639      0.97020049314766
  C           1.44856231202990     -0.44215658099244      0.23073063182291
  C           0.72375620562699     -1.65352015987311      0.25814206001428
  C          -0.70871078742371     -1.69251580544174     -0.12748061718850
  O          -1.43209834700925     -0.53584562480671      0.15364454339185
  Br          3.30588129658183     -0.66141302780508     -0.91796296548053
  H           1.93314190422169     -0.07894572757051      1.12666723455611
  H           1.24260209884686     -2.59652687722224      0.20398950840308
  H          -1.23948696255067     -2.49455502215151      0.39487179702185
  H          -0.75680720684788     -1.91264373277271     -1.20538179887948
  H           0.16038359611901      1.02774376201249     -2.33001073819338
  F          -2.40399794347187      2.25321779289547      0.31858296505729
  F          -1.79394985630350      1.32567674727550      2.17877769968141
  H          -0.61073249770741      2.54761296182777      1.13463494969089
