18
Coordinates from ORCA-job NEB_reactant E -38.031284036310
  C           1.96455945521206     -0.03827732360558      0.35131795247421
  C           1.55022711461385     -0.33775256862342      1.58630791636323
  O           2.43469085977680     -0.94168390933287     -0.56532165903132
  H           1.93404746030017      0.99592471276000      0.03945384483563
  C           1.03884423450645      0.77250070552522      2.47346128306065
  C           4.25685201535186     -3.49676802157662      2.53310688905082
  C           3.56965969982161     -2.63882543182861      1.80317006354899
  C           2.07525765887512     -2.68283530972114      1.68110711843117
  O           1.46501350634594     -1.53109847435304      2.23465960881939
  Br          6.14002016785073     -3.43836396490197      2.66402720614021
  H           3.81767713977784     -4.30562655279873      3.09493288087320
  H           4.06531253572031     -1.84311638071919      1.26671417339932
  H           1.66457670216644     -3.51294253827148      2.26100762579708
  H           1.79763777094400     -2.79663539147801      0.62790891657506
  H           2.77406827302991     -0.47940176469274     -1.33765601414124
  F          -0.24743085935982      0.55859424799464      2.83750862330490
  F           1.75004221346184      0.84052642629813      3.62382612038118
  H           1.08914405160489      1.75988153932541      1.98966745011752
