18
Coordinates from ORCA-job NEB_product E -38.034086058950
  C           3.10962756055622     -0.27627624397198      1.12211319888107
  C           1.61048051064878     -0.02352298405737      1.18062197523547
  O           3.50725423196802     -0.22476794228563     -0.20939905209304
  H           3.61186073796547      0.50479611762206      1.72039353291532
  C           1.05157216453788      0.20577075465262      2.60865937245986
  C           3.37034746987205     -1.64984588170876      1.77977340958500
  C           2.66512209853468     -2.74968203000605      1.07040759786573
  C           1.95043029737445     -3.66905974176078      1.69286567851794
  O           0.87261077236835     -0.02276502061595      0.24333586616442
  Br          5.33469882147563     -1.96605789167611      1.69544570328820
  H           3.14052438337874     -1.63044912069569      2.84545977281067
  H           2.77377697980840     -2.74473254936319     -0.00555878753083
  H           1.83660552285528     -3.67537554837967      2.76453785678089
  H           1.44255981077567     -4.44618440984543      1.14997672628544
  H           4.44213530525073     -0.46944280622306     -0.27186655551872
  F           0.69637196035053     -0.98790611622601      3.14367364944814
  F           1.97734766959208      0.73152100377501      3.44136442233582
  H           0.16637370268704      0.85768041076600      2.59869563256862
