24
Coordinates from ORCA-job NEB E -36.528284002380
  C           0.71672410977024      0.58219806615492      0.44382897771278
  C          -0.34636202223661     -0.32446809438059      0.21959732090211
  O           0.47153067936859      1.94723961760507      0.39445939425785
  H           1.44430300653081      0.30881766294267      1.21688411976061
  C          -0.19060586509957     -1.77689928150263      0.60132240554179
  C           1.61657167748273      0.41106805913993     -1.18163154349478
  C           0.64852730051565      0.81278100519439     -2.11176406934392
  C          -0.52806446430359      0.01987464455791     -2.18782489069075
  O          -1.20093660237262     -0.01088100484639     -0.71324264849147
  F           2.70478814041561      1.19483863988486     -1.03053583961977
  H           1.92595170642809     -0.63390256121142     -1.13262409131325
  H           0.59450915341642      1.86579874851105     -2.33631904340473
  H          -0.37564290959498     -1.04692570945449     -2.34381121405660
  H          -1.32862209852811      0.41555451831423     -2.80023511966151
  C           0.12983230455709      2.48746703529424      1.64766171164405
  H           0.92084582374576      2.30610465874281      2.38608304142761
  H          -0.80918238221511      2.06170790958873      2.01945047670007
  H           0.01257116480660      3.55809176549286      1.49518269344285
  C          -1.53461364375400     -2.38654771416815      0.99380806325561
  H           0.52547085472852     -1.87129261375071      1.41808260934395
  H           0.20504829915753     -2.32233626415714     -0.26595621809652
  H          -1.90691544151557     -1.92437991240049      1.90465361776559
  H          -1.43530926924355     -3.45622869787507      1.16038075277397
  H          -2.26041952205994     -2.21768047767658      0.20254949364446
