24
Coordinates from ORCA-job NEB_reactant E -36.564436314620
  C           1.32677253478526     -0.12709720009671     -0.15123035843053
  C           1.43255880375670     -1.26279060754056     -0.84066648326643
  O           1.23036083855505      1.14863844972688     -0.67388470004017
  H           1.29382727796914     -0.18238260239693      0.93010964152340
  C           1.43160872764893     -2.59053548574393     -0.12695837156631
  C           3.73290925344428      0.22370277449359     -4.15666934037491
  C           2.96781918738329      0.22262726291144     -3.08404697491761
  C           1.58114668072811     -0.34481167107687     -3.06402903040313
  O           1.47446716491990     -1.45538479870023     -2.19550598896222
  F           4.97320734053596      0.74184188994701     -4.14367078999056
  H           3.46579298981651     -0.15462889666538     -5.13289666589336
  H           3.33978048969668      0.62400755906642     -2.15386388899008
  H           1.31658836510650     -0.73435743810603     -4.05096848845094
  H           0.87061635730557      0.43634648562642     -2.77338158126791
  C           1.65659852688451      2.16436035876783      0.19909483845938
  H           2.72906013995845      2.08848169585486      0.41277321253884
  H           1.10505980092563      2.13143188792416      1.14565482996759
  H           1.45523832900312      3.10796642285082     -0.30500078666109
  C           0.03444550085204     -3.21097070753300     -0.12366646895043
  H           1.78191648384496     -2.46012498116994      0.89677130026331
  H           2.11791693421426     -3.25642864153435     -0.65165855314506
  H          -0.66428064105490     -2.56669711610913      0.40453628058362
  H           0.05252296851342     -4.18196685233665      0.36527898615062
  H          -0.31653405479337     -3.34032778815971     -1.14372061817601
