15
Coordinates from ORCA-job NEB E -30.741172057930
  C           1.27350492690486      0.79289662652000     -0.76157754315235
  C           0.67930539342957      0.95910358536308      0.98260952486165
  F           0.79378337030369      1.63091347297781     -1.67127471414276
  H           2.35281130869094      0.80553063323568     -0.69205681637879
  C          -0.44905503146018      1.84567514922040      1.01986643863595
  C           0.42867105162245     -0.18358447832141     -0.14476699637798
  C          -0.96752551791525     -0.33787696999747     -0.57690205629373
  C          -1.72381261144499     -1.34837293072399     -0.16409545111538
  O           1.55159434743428      0.88286536189792      1.82317951261296
  I           1.92329461265230     -3.34749825551448      0.17574958351653
  H           0.91476514720522     -1.11898508061532      0.20047175548572
  H          -1.35903427966054      0.40890984998197     -1.25472845203421
  H          -1.34731541692700     -2.10534797888623      0.50385157244295
  H          -2.73997561520207     -1.45882167165334     -0.49830309930445
  N          -1.33101168563328      2.57459268651539      1.05797674124389
