15
Coordinates from ORCA-job NEB_reactant E -30.817507599190
  C           1.48958598101474     -0.12090385212499      0.09540025140565
  C           1.37674210739544     -0.75443619842973      1.27096840579988
  F           1.08839347505164     -0.61719249770529     -1.08840756231739
  H           1.93393214591672      0.85740900158818      0.00666476951417
  C           1.87789415328177     -0.03828902428407      2.40040157123345
  C           1.76174757794175     -4.79079432934478     -0.01323609916077
  C           1.50867432266409     -3.50310782361340     -0.13927252173604
  C           0.38208815488836     -2.83237914489498      0.59333058950146
  O           0.85237918882339     -1.95383662556750      1.60642716596767
  I           3.32856033834298     -5.75684482479405     -1.02188806942634
  H           1.17734283773047     -5.45302804428146      0.60342015422477
  H           2.12059168793858     -2.87133414572660     -0.76641276029896
  H          -0.21362386136068     -3.56955575134435      1.13737497394538
  H          -0.26474780619728     -2.30044147999725     -0.11366734284182
  N           2.27943969656802      0.53863474052029      3.30269647418888
