19
Coordinates from ORCA-job NEB_product E -45.093988081650
  C           1.51176829704247     -0.73530300717094      1.94391734047481
  C           1.32801124813086      0.60696859577976      1.28638701332099
  C           1.05175803720564     -1.83192396932869      0.96971858386576
  H           2.59467909422612     -0.87518078468766      2.10768367548896
  F           1.42442849770426      1.61312834455322      2.19199718977945
  C           0.85121189062451     -0.83596610137855      3.33361816545584
  C          -0.61672029809449     -1.14319732934444      3.31549984210857
  C          -1.54156010632618     -0.22023933250872      3.49737298400300
  O           1.15984231625671      0.85254983258572      0.14911721358395
  N           1.58590179250194     -1.87810149735349      4.14364415828512
  H           1.02683995610924      0.10577796936411      3.87030620913846
  H          -0.88021906971931     -2.17564196968489      3.13931218879660
  H          -1.29415533574317      0.81358582539087      3.67768264415959
  H          -2.58779489833553     -0.46397067558050      3.46404108790185
  F           1.15817543376533     -3.04375547424829      1.55458665513944
  F          -0.24571388109552     -1.68291801963662      0.63247798191884
  H           1.64272888969589     -1.83812381823802      0.04177811606125
  O           0.94284314626426     -2.47558903717966      4.95897720249152
  O           2.76867498978696     -1.99009955133321      3.94098174802602
