19
Coordinates from ORCA-job NEB_reactant E -45.079218448880
  C           1.64398438704599      0.03773651742166     -0.09569538364387
  C           1.12897121092580      0.36314988022337      1.08935444662789
  C           1.88392930238364     -1.38917286534162     -0.46923487858527
  H           1.89377808507877      0.80978147950209     -0.79842713089811
  F           0.92559120233229      1.65705038869745      1.39495238354752
  C          -0.58889112334319     -1.07884262315350      5.33843744272059
  C          -0.06258315513473     -1.16498003682831      4.12347107460923
  C           0.24479709149760     -0.00044468231863      3.24944133583884
  O           0.78343297879597     -0.49501041940249      2.03376649820111
  N          -0.85515588777270     -2.25671347714595      6.11712324768742
  H          -0.85946912278707     -0.16305469527875      5.84214562274879
  H           0.17188341475806     -2.13883069966805      3.70981358985402
  H           0.96746607318740      0.66704169793322      3.74063414813939
  H          -0.66658675602097      0.58208320350434      3.05225212247241
  F           2.72913411469132     -1.99977190216842      0.40272495503234
  F           0.73623554005152     -2.11634541572997     -0.43150660451202
  H           2.31219859011720     -1.49479793085712     -1.47658928708693
  O          -0.57995531507824     -3.33438254367080      5.64254554741304
  O          -1.34466063072865     -2.07569587571853      7.21009086983363
