19
Coordinates from ORCA-job NEB E -40.166161713880
  C           0.89349696903654     -0.50957907541688      0.05766459844066
  C          -0.24354055029748     -0.71631796036622     -0.75555094797031
  N           0.85165724370770     -1.23419871291231      1.32845352597334
  H           1.86489988630201     -0.63351356859070     -0.41628660444665
  C          -0.08106940722556     -0.84301596430633     -2.24890835528547
  C           0.70399843669251      1.22766098841768      0.62181291557536
  C          -0.54635901709396      1.21820301275797      1.25151597070251
  C          -1.68944999966174      0.79705849283368      0.46499412700530
  O          -1.44610126733077     -0.51669079545618     -0.27031862238100
  Br          2.22723469898701      1.67887499786612      1.72084492807307
  H           0.82287532851339      1.70043000626735     -0.34687904450269
  H          -0.61411704758626      1.19319740241184      2.32617669281431
  H          -1.92208478596706      1.46622519699832     -0.36642020473714
  H          -2.57384977546449      0.60312508242766      1.06553640556812
  O           1.79137314920655     -1.96179949250472      1.54621813472676
  O          -0.13404717963663     -1.10416926113398      2.01335812800118
  F           0.76127329286094      0.14902197896629     -2.70870587084302
  H          -1.04394750607310     -0.71858247622509     -2.75071330041422
  H           0.37775753103038     -1.79592985203447     -2.53279247630012
