19
Coordinates from ORCA-job NEB_product E -40.196779467030
  C           2.59199277478053      1.76611512068032      0.03183643985617
  C           1.44930629504868      1.51403394115768     -0.98429847999339
  N           2.71226529487451      0.50481488647817      0.84267732151224
  H           3.54191234474221      1.85249293250225     -0.50708833018267
  C           1.93232168600524      0.78016194566294     -2.21619508852908
  C           2.33027926055993      3.02069330949084      0.85999787794848
  C           1.05067890101412      3.06700610821318      1.61956547145048
  C           0.24224877231892      4.11093947298665      1.57532215627628
  O           0.32363790638546      1.85310379319038     -0.78304334212025
  Br          3.86878818524732      3.24321294388767      2.12270732355773
  H           2.40643054861670      3.88752457384995      0.19773821520097
  H           0.83739457092213      2.21912466502823      2.25216013434339
  H           0.44977066800632      4.97257430783077      0.96149954889974
  H          -0.67014819982014      4.13468754300285      2.14323414996169
  O           3.13772577251563     -0.44473991691853      0.23309591264614
  O           2.37425815008240      0.52282243131048      1.98827092280955
  F           0.89847964510842      0.50325070019137     -3.05534807138626
  H           2.40290855802812     -0.16947985102467     -1.92585524060344
  H           2.65244886556347      1.39586109247947     -2.76967692164778
