16
Coordinates from ORCA-job NEB_product E -32.815342487120
  C           3.06056726177191      1.19535014789330     -1.24552847855450
  C           1.61772550946817      1.27805504302917     -1.58965728063245
  H           3.23126995421001      0.32586157551302     -0.60242793299954
  H           3.61878484450650      1.00506776495785     -2.16965885836347
  N           1.04619447652715     -0.09237010288064     -2.05765896478743
  C           3.53561460707724      2.48158412169438     -0.57584570698055
  C           2.93497207606028      2.67770898847411      0.77203322807193
  C           2.31085110460629      3.78247834984599      1.13646819811004
  O           0.87002999835892      2.19446870335614     -1.57528720867264
  Br          5.51335429866743      2.37373161342314     -0.39253103754189
  H           3.35408039040508      3.34544676642580     -1.21802108853040
  H           3.05692849159353      1.84994426692206      1.45821651913020
  H           2.19111673405257      4.61584694464212      0.46438907655188
  H           1.88596357526770      3.89179811608288      2.11847508280136
  O          -0.08331197807175     -0.06831102164657     -2.45926843690813
  O           1.78095865549898     -1.04626127773276     -1.97739711069442
