19
Coordinates from ORCA-job NEB_reactant E -42.278450748860
  C           1.33236041547200      0.34810499276349      0.06485828117636
  C           1.61878361465195      1.06565899275683     -1.02197766152648
  F           1.61165941854638      0.73561220101578      1.32147348561144
  H           0.84702203769315     -0.61306419421156      0.03041590839779
  C           1.24246451640506      0.50352238479545     -2.37898208632756
  C           2.72052951667722      5.43856094151986     -0.30896426500528
  C           3.28509042218819      4.24439356429025     -0.48735967305904
  C           2.66546804424116      2.97441440941225     -0.01695349078989
  O           2.20840825512165      2.25985778073645     -1.18089664018360
  N           3.29033776439638      6.63907141569854     -0.65417490121820
  H           1.78293631041313      5.52783839454733      0.22374567969987
  H           4.21579753896015      4.14989819955487     -1.02533272086813
  H           1.81439364908333      3.17481913830355      0.64149288837708
  H           3.39350181402088      2.34971539654473      0.51354257387402
  F           0.40630810117280      1.31367348512494     -3.03753529454916
  F           2.31399106253926      0.33460075923784     -3.16141521136522
  F           0.63567871129267     -0.68868963570912     -2.30000269222368
  H           4.05851873554882      6.58705824118284     -1.30513287580326
  H           2.66425007157582      7.41125353243568     -0.80960130421706
