22
Coordinates from ORCA-job NEB E -39.906382407710
  C           0.00874741821994     -1.01916959232720     -0.67879819457811
  C          -1.04807255080504     -0.16401363796326     -0.74586512412392
  N           0.32219542903385     -1.80413842937302      0.44039335217932
  H           0.71395428894681     -1.11733055589939     -1.48637416687084
  O          -1.43050321091588      0.43453914938057     -1.88732049588786
  C           1.11740441993135      1.07157735533647      1.23154503997782
  C           0.07250285729871      0.52042626570762      1.86181594150063
  C          -1.34018520755791      0.78839864222405      1.49456710088827
  O          -1.83716033724380      0.20755258607768      0.24198003315404
  N           2.42553278759915      0.85245658731461      1.56383967980210
  H           0.96357965798953      1.79436907211508      0.43861166606069
  H           0.24496722878011     -0.19852775820597      2.64783921960771
  H          -1.51847108669101      1.86371132359591      1.37291433435453
  H          -2.01940996381134      0.38759249816522      2.24660291000047
  O           1.49408171727184     -2.13207806896874      0.56623411258160
  O          -0.56569346112019     -2.15603991340047      1.19445668422909
  C          -0.91873581274918     -0.01926996321822     -3.12299588398017
  H          -1.53330803785972      0.45236166261088     -3.88727520271066
  H          -0.99291862420853     -1.10599786840108     -3.20607108404974
  H           0.12260286317780      0.28794530213848     -3.25484847133671
  H           2.60211868943658      0.02511269810579      2.11403457461301
  H           3.11677093527693      1.03052264498499      0.85471397458873
