18
Coordinates from ORCA-job NEB E -31.228523807970
  C           0.26429323535751     -1.08924485324363     -0.46438336335516
  C          -0.57079491748242     -0.21030537720272     -1.20073202868109
  C          -0.34366854023671     -1.98107367892861      0.45165443738604
  H           1.13566902357030     -1.49923991606494     -0.96627938067615
  N          -0.10377862986910      0.30668581139281     -2.38643800088916
  C           0.96274250102570      0.28997565778140      0.82806574579606
  C          -0.21196419565113      0.78282916522684      1.41000078286811
  C          -1.09973306958408      1.48225121459478      0.57416340626254
  O          -1.57620464616671      0.35663030595906     -0.65135665400622
  C           1.87550816869943     -0.46868329552632      1.60879719787834
  H           1.45582204647783      0.89752163144620      0.07183027540241
  H          -0.59756903581975      0.27963497354716      2.28422729077848
  H          -0.68263022886776      2.22660745564780     -0.09634407759001
  H          -2.06777870099355      1.74820142825607      0.97318476934564
  N          -0.85325694298495     -2.69182689979939      1.19070027383197
  H          -0.75107401767214      0.88716462386792     -2.89614958975688
  H           0.52972648769568     -0.24102311381090     -2.94352453057337
  N           2.63469146250185     -1.07610513314355      2.21258344597845
