18
Coordinates from ORCA-job NEB_reactant E -31.264633218750
  C           1.79369121412816      0.09095582341291      0.32688707114564
  C           1.55635624218884      1.38776144498797      0.01027741175108
  C           1.71609377738707     -0.51773800296176      1.57552952730392
  H           2.04713599905200     -0.58147088546382     -0.48056390349737
  N           1.57200982203165      1.81350107910669     -1.28901324270258
  C           2.92659778825398      1.46684103708044      3.85955771789979
  C           2.57078835069021      2.21391657121309      2.81741455532404
  C           1.19405557272465      2.23920228826793      2.22874841540308
  O           1.22051183256432      2.41506995997344      0.82303284650142
  C           4.22728696266637      1.51390815017586      4.39700332821202
  H           2.24227101463279      0.77706119219834      4.33457208945522
  H           3.28382420454716      2.87738596815796      2.34406510216730
  H           0.66454649739336      3.12856866144841      2.59352829137917
  H           0.62099676750121      1.35004381999571      2.50763790271003
  N           1.65967576953228     -1.08062841176007      2.57884251774308
  H           1.57862867731086      2.80845758614662     -1.43490434962522
  H           2.02608939413233      1.24174472131220     -1.97794785249027
  N           5.28364011326274      1.56251899670810      4.84013257131965
