20
Coordinates from ORCA-job NEB_reactant E -52.173242558690
  C           1.52030088740534      0.14685017662782     -0.08749377417301
  C           0.97213408149880     -0.83401977307133      0.63255591280248
  C           1.82888798136566     -0.02263990186144     -1.52539298484526
  H           1.74742171138753      1.08650590915554      0.38327445959910
  F           0.70709311255396     -0.63690684871668      1.93219298786318
  C          -0.16400261998500     -5.42652540684171      0.70938263888815
  C          -0.23840010539854     -4.19549395716048      0.23004685316624
  C           0.05692147662999     -2.97708294973050      1.03980268817492
  O           0.65544240666294     -2.02767311803924      0.16365201304779
  C          -0.47788048355413     -6.66897669820543     -0.02883103292341
  H           0.13237984110762     -5.60787702743799      1.73618667363630
  H          -0.52180813032641     -3.98982708685106     -0.79285532384744
  H           0.72678064615340     -3.20076072016048      1.87851152375845
  H          -0.88128572096183     -2.56827095672013      1.44347131571035
  Cl          0.35307166121762     -0.41359705235846     -2.45957964424774
  Cl          2.53294810258778      1.45671038002153     -2.18896217547004
  Cl          2.98662344306277     -1.36482042511321     -1.78256200482102
  Br         -1.96131549946656     -7.60045992836199      0.88522655474250
  Br         -0.98901179813914     -6.41265316888425     -1.88083383587631
  Br          1.09329900619821     -7.85938144629049      0.01060715481476
