23
Coordinates from ORCA-job R E -27.868510421690
  C          -1.21987496942409     -0.34934821264519     -2.88244606274514
  C           0.41936923605809     -2.75938132171922     -2.05324900800060
  C          -0.90419890642261     -2.62221690869257     -1.96181155615590
  C          -1.70443620590771     -1.48852468899535     -2.35800026800042
  C          -0.76706898400839      2.15193542692773     -0.45437486951911
  C          -0.77345834084532      0.88019472297923     -0.07055889259019
  H          -1.46901569435548     -3.43777850785298     -1.52505596906856
  H          -2.76634085221639     -1.58884664749945     -2.19110789367035
  N          -1.94625292084310      0.72859465686417     -3.31270139034683
  H           0.91290030154253     -3.65209612142196     -1.71011281856924
  H          -0.15841492136740     -0.23943153992457     -3.05560633609346
  H           1.05630475953444     -2.00658909593880     -2.48599765208328
  H          -1.65406391432795      2.75593017503592     -0.41480306938852
  H          -1.68560617958014      0.40646204787351      0.26703947798246
  H           0.13709994542093      2.63679811638135     -0.78383117306716
  N           0.33830950962481      0.07038203254887      0.02469840455537
  C          -3.35067080890151      0.84736918254700     -3.00641625072975
  H          -1.44405842976377      1.60362898311131     -3.30108219535725
  H          -3.54394565569636      0.88069754052722     -1.92757201687445
  H          -3.88392384356999     -0.00382255120534     -3.43005385353806
  H          -3.73497504630893      1.75781385799805     -3.46158322610902
  H           1.16087435954154      0.43107176513458     -0.43649681073526
  H           0.18294756181682     -0.91121291203350     -0.15154656989526
