23
Coordinates from ORCA-job TS E -27.844092258010
  C          -0.24798582752406      0.18526295150902     -1.02854539009002
  C           1.20847710763707     -1.76010009349432      0.46979899986427
  C          -0.09258763338959     -1.95387555430950      0.09858189271339
  C          -0.81407229789357     -1.01104404347412     -0.64084068682406
  C           0.25854966414147      0.92896205994017      1.03588043806183
  C           1.07259171595370      0.05728724711625      1.71778274207090
  H          -0.65013893302718     -2.76293550200292      0.55254288107128
  H          -1.88161161985056     -1.14482104562061     -0.72458261188881
  N          -0.94581943282024      1.23270181688380     -1.58411332555435
  H           1.68899039866025     -2.48447716599727      1.11098829969807
  H           0.81211199697409      0.23470941551460     -1.22166306362318
  H           1.88044187458868     -1.20196416745191     -0.15939159993110
  H          -0.78547792125527      0.97860455663840      1.27722798167254
  H           0.66149874870245     -0.56611239136934      2.49726083610393
  H           0.68753038001582      1.80605224860690      0.58330126337193
  N           2.43488206458053      0.33261789887595      1.88818789689643
  C          -2.38017339926375      1.23136099161816     -1.69476965100783
  H          -0.45840437822806      1.78722454097654     -2.26804155549360
  H          -2.81393097715976      0.98175887912896     -0.72652210467402
  H          -2.75181360424811      0.51357285500694     -2.43843218573256
  H          -2.71481321050576      2.22870110375305     -1.97638333333292
  H           2.83184410366835      0.86194003683654      1.12331519585604
  H           2.99991118024350     -0.47542663868529      2.10841708077185
