20
Coordinates from ORCA-job NEB E -31.951356251420
  C           0.52385898439485     -0.12851275321543     -1.11532982999179
  C          -0.59732911184721      0.43979037738886     -0.43411926046347
  I          -0.01815268031327     -1.11581429248019     -3.03159906417159
  H           1.25972450136464      0.61557619006945     -1.41045277175777
  C          -0.65619959137342      1.88869831957433     -0.06480111931827
  C           1.16907137769907     -1.21867651927813     -0.14285062713479
  C           0.14892131628931     -2.17202860942374      0.24463281216179
  C          -1.23403364607027     -1.69780497724619      0.42131362745055
  O          -1.52737426135990     -0.33748112438957      0.11666173341543
  Br          2.73422276680911     -2.09782485464043     -1.00355140641285
  H           1.62991667033317     -0.64379695238153      0.66374476521387
  H           0.24518965135744     -3.18875404452517     -0.10006325119706
  H          -1.54734037222129     -1.76569581576630      1.47267578887627
  H          -1.92731296868999     -2.32619697908271     -0.15220871573965
  C           0.29403484296944      2.21824911183268      1.09420353133738
  H          -1.68023109914623      2.11887547143993      0.23163854720891
  H          -0.39633153947058      2.49938306159657     -0.93148176832499
  H           0.04601774842032      1.62289821389691      1.96978474589802
  H           0.20628208675353      3.26941933636787      1.35467898945577
  H           1.32706532410127      2.01969684026280      0.81712327349424
