20
Coordinates from ORCA-job NEB_product E -32.007452063400
  C           2.96117750602011     -0.79215859369358      1.45229435064397
  C           1.62432084533163     -0.22218436427388      1.89963861858850
  I           3.11419347037137     -0.24929581430006     -0.64604969751439
  H           3.78808206276833     -0.26513962292398      1.93162533940020
  C           1.64756717869286      1.25205931463781      2.22017312034552
  C           3.06941425519733     -2.28448334834231      1.68760980869290
  C           2.09251269946990     -3.12716221933849      0.95161160092230
  C           1.37747902288069     -4.07837489179219      1.52331791554837
  O           0.64445856203958     -0.91003907750170      2.01516247416264
  Br          4.91402300377920     -2.86615075855133      1.20330891859365
  H           2.99833253992455     -2.46688933063310      2.76462234584614
  H           2.02009273226678     -2.94143524363079     -0.11170745625382
  H           1.44239670374197     -4.28715937212953      2.57865506982615
  H           0.68502585937227     -4.67531959051349      0.95724375111273
  C           2.01233932125830      1.42619469305091      3.69798297828378
  H           0.65145634106778      1.66078080841963      2.04527885811736
  H           2.36877159783132      1.77958654843430      1.59486958577706
  H           1.29946110301730      0.89751451196127      4.32646375529981
  H           1.99041706349831      2.48054039453278      3.96011899984001
  H           3.00937813147041      1.04191595658772      3.90487966276712
