26
Coordinates from ORCA-job NEB E -47.752318118230
  C           0.08801538829987     -0.43113368779626      0.90053089248123
  C          -1.07044844547608     -0.70766387980673      0.13463095999325
  C          -0.09936682487684      0.09139977143955      2.30168925813283
  H           0.81704442670617     -1.23900915337588      0.92308381655071
  C          -1.15250844931741     -1.96039617822045     -0.70532876154289
  C           0.88445092274510      0.93517116151717     -0.21910711786257
  C          -0.13660208060861      1.88291031052422     -0.35379183125937
  C          -1.37673198467537      1.46936221106723     -0.92291449306874
  O          -1.94476982966289      0.23452762734944     -0.05979914144166
  C           2.21935272932355      1.38898936304683      0.32385867302418
  H           1.04430814040921      0.25953584005413     -1.05261553872595
  H          -0.12344352488061      2.74604208157901      0.29198135098242
  H          -1.32206353611354      0.99714735632531     -1.90098642491233
  H          -2.18420954144972      2.19016086052383     -0.86588485938004
  Cl         -1.05977637576785      1.54931734281155      2.47225824193094
  Cl         -0.97833834616855     -1.21918652466522      3.20493972043207
  Cl          1.43976591828614      0.29913628945727      3.16621864526411
  C          -0.07462213434119     -2.08606373527465     -1.78559551748099
  H          -2.13696662043618     -1.97114724479313     -1.17556319644029
  H          -1.08452674379704     -2.82343608435137     -0.03895225159432
  H          -0.12973788204181     -1.26040948135897     -2.49117172454617
  H          -0.22487503141413     -3.01061243032429     -2.33735051366777
  H           0.92015005926918     -2.11198258840759     -1.34739236715698
  F           2.09649742048343      2.42288609256514      1.21092629274423
  H           2.82906833724458      1.76844631884401     -0.50677139008522
  H           2.76033400826059      0.58600836126986      0.83310727762933
