26
Coordinates from ORCA-job NEB_reactant E -47.794323264850
  C           1.27453676005012     -0.34415129061929     -0.13331851225156
  C           1.46373924739373      0.30310248848385     -1.29592809587205
  C           1.81029751915805      0.14827163651090      1.15277161943655
  H           0.72248751265392     -1.26624167386135     -0.10822995643366
  C           0.94034353136000     -0.27981090410925     -2.57891100845278
  C           4.34316173190925      3.72430018174489     -2.63826129412573
  C           3.20791055294808      3.39844137788762     -2.04571436366610
  C           2.36291799939381      2.22695014523782     -2.43916188190925
  O           2.17488376567956      1.44420680189678     -1.27146420668057
  C           5.18812090097538      4.89809412652862     -2.26150029554247
  H           4.73795246149581      3.15004270095792     -3.46560047589966
  H           2.83616146515979      3.97260482029101     -1.20995791734169
  H           2.85507284693239      1.64723546867328     -3.22906859366128
  H           1.39178540099216      2.58930862750705     -2.80855444807706
  Cl          1.17927376791705      1.77596090431913      1.55050042983383
  Cl          1.37045694907284     -0.94408380784205      2.47506921091732
  Cl          3.59732132837735      0.27508670764348      1.11541084730679
  C           1.98076680229507     -1.20877288753119     -3.21172411097472
  H           0.67271478267462      0.51006013875630     -3.28146648389719
  H           0.03998302183525     -0.85265448329296     -2.35764817766270
  H           2.90468320636876     -0.67792549998771     -3.42873413941430
  H           1.59539017951339     -1.62398495204070     -4.13955804963165
  H           2.21188407585396     -2.02475084108009     -2.53232011049174
  F           4.60778684071765      5.66310969784411     -1.28559413431928
  H           5.35048457826319      5.55555536343547     -3.12526712229774
  H           6.15988277100885      4.56804515264635     -1.87216872889130
