26
Coordinates from ORCA-job NEB_product E -47.797274534580
  C           2.78056466708343      1.15224627244529     -0.90374424264008
  C           1.44943625730147      0.68305379121523     -1.53291629036446
  C           2.49317480901725      1.53125823151129      0.54829855096601
  H           3.47313426538198      0.30596159510193     -0.85142373201372
  C           1.43871817665833     -0.74546431064890     -2.01824115059468
  C           3.41084277357378      2.21667521013880     -1.84741417815157
  C           2.46904151274477      3.30691603741584     -2.27992958118313
  C           1.99807796145601      3.40736772741956     -3.50783988674551
  O           0.51192760240739      1.42220809293197     -1.64119898918902
  C           4.70656327362693      2.83944593064123     -1.31253097623160
  H           3.70056837928688      1.65223987159186     -2.74214146045861
  H           2.22400301943312      4.04694359863245     -1.53563741606689
  H           2.23373550509354      2.68545401206750     -4.27401045923349
  H           1.34346690438535      4.21015127446369     -3.79643026694294
  Cl          1.57116665269205      3.00968138680569      0.76757528938016
  Cl          1.51992185243896      0.18206163784655      1.25376716093715
  Cl          3.98263517335587      1.61336864432572      1.52035686084106
  C           2.34540186297262     -0.93063750805892     -3.23628158088500
  H           0.41264922971433     -1.00051065206832     -2.28639876765499
  H           1.76747225638791     -1.40179735878998     -1.21108405111381
  H           2.05513289328293     -0.24635342172884     -4.02965566627098
  H           2.25015205478468     -1.94699339774289     -3.60921419743602
  H           3.38920047487418     -0.75760037592406     -2.98597463411472
  F           4.46636867191112      3.79690392891942     -0.36598504495582
  H           5.22970750065324      3.34547148662105     -2.13148578007573
  H           5.36123626948188      2.09104829486687     -0.85455950980161
