23
Coordinates from ORCA-job NEB E -53.051161491070
  C           0.44374344928380     -0.85971738808923      0.35812115978201
  C          -0.75990040433025     -1.25241458577669     -0.26895097986515
  C           0.45165174514828     -0.80755846231231      1.86455882276825
  H           1.33955430762311     -1.31938532258236     -0.05090608924158
  C          -0.67700538109989     -1.87121408299640     -1.65546381039998
  C           0.51679239876600      0.92681547993349     -0.23495801963335
  C          -0.72177723276788      1.45663303047977      0.16438953823148
  C          -1.90533421627863      0.87917320372776     -0.38679092628187
  O          -1.87525620638630     -0.65887981288254      0.04937945639589
  C           1.77156480585436      1.61621496692587      0.24990480081606
  H           0.63044867421267      0.71296954517034     -1.29515192981300
  H          -0.78865263658922      1.96235232029305      1.11523704724783
  H          -1.94150038429288      0.80539359453296     -1.47133451501397
  H          -2.84194204690723      1.23102216104931      0.02989206472380
  H          -0.43384013317730     -0.30742142382566      2.24463947915307
  H           1.34257958554378     -0.32015562866481      2.24325117354066
  H           0.45031561488663     -1.83338662284223      2.23042655297774
  F          -1.81963754414788     -2.44677800409492     -2.02896342525076
  F          -0.38350552899487     -0.95881811702059     -2.62244308889639
  F           0.28799236131009     -2.79887457995196     -1.73385451826286
  Cl          2.03462881123456      3.02899722033771     -0.82911056139555
  Cl          1.66962707767414      2.23606791269171      1.90536507847909
  Cl          3.20945288343490      0.57896459589775      0.12276268993858
