23
Coordinates from ORCA-job NEB_product E -53.083597100940
  C           2.66239545813081      1.45925083272680     -0.36783078438847
  C           1.56719595509946      0.75140869531687     -1.12903773876826
  C           2.45116306920637      1.21976382245864      1.12654051788151
  H           3.63445845920046      1.06753831250235     -0.67961423967786
  C           2.04834067096832      0.11266500822554     -2.47052846872206
  C           2.57781312978359      2.95676847848883     -0.80317980961769
  C           1.55748732583704      3.71173149187644      0.00227980488898
  C           0.36292914514946      4.02522128515170     -0.46097537397076
  O           0.42228801762837      0.66144703260464     -0.80300162355788
  C           3.93767561587620      3.65800212901725     -0.75037069917889
  H           2.28168941754746      2.99076736001267     -1.85832538199357
  H           1.85738093349451      3.98229939251546      1.00327971160654
  H           0.04750602264340      3.76397545919360     -1.45754997107633
  H          -0.35354602407689      4.55305930996543      0.14313639738330
  H           1.44213399560350      1.50290997438125      1.41263347748850
  H           3.16634686672684      1.78361528619099      1.71423955048400
  H           2.58598989584274      0.16215665355274      1.34103468988645
  F           1.06944048321866     -0.51582757840479     -3.11353243082786
  F           2.54716670466535      1.04028956705638     -3.30478357755804
  F           3.02779821446994     -0.77612903475248     -2.24862056914993
  Cl          3.72939657023930      5.33227316388605     -1.33198388061077
  Cl          4.62671543011300      3.73134184125138      0.87793730355181
  Cl          5.11573464263209      2.84827151678224     -1.81704690407274
