20
Coordinates from ORCA-job NEB E -46.219229732480
  C           1.10954952576306     -0.11443195476747     -0.57860915680346
  C           0.50936308077617      0.48593639788862     -1.68416446447275
  C           0.95785722018813     -1.61034901727265     -0.43088935933244
  H           2.09191517409317      0.25741064512532     -0.30496239183056
  F           1.00656661212521      1.71080682371893     -2.03722938726435
  C          -0.15733414487710      0.64454744690000      0.76079222063276
  C          -1.41381035612975      0.30742342054393      0.26489782666609
  C          -1.79230202006450      0.84952839907643     -0.99453656923412
  O          -0.68001095417582      0.25171994138387     -2.04892884556841
  C           0.25042422378590      0.09663123380665      2.10354909306116
  H           0.19069636122400      1.66741584678437      0.64918140796697
  H          -1.87403297687399     -0.61136889508961      0.59652338897827
  H          -1.64018999314878      1.91565596972139     -1.13677351617663
  H          -2.72175334931455      0.49449535238433     -1.42034684425743
  F           1.83180836249038     -2.21955500677736     -1.29771747414278
  H          -0.04671361060967     -1.94401786396296     -0.70789080336445
  H           1.22776482341857     -1.96029028566123      0.56829059660893
  F          -0.21446629791751     -1.13768710628307      2.34077289772738
  F           1.58044618189518      0.04180718917643      2.26450902540682
  F          -0.21577786264808      0.87432146330409      3.09353235539899
