17
Coordinates from ORCA-job NEB_product E -42.175411464910
  C           1.64324618589851     -0.68282436753526      1.40788654090904
  C           0.85204229762127      0.54131756175751      0.96689996701204
  C           1.45097872442382     -1.79307655035704      0.36645748352006
  H           2.71035133658910     -0.43763978760289      1.42082179717581
  Cl          1.84166413806425      1.71229888585145      0.12422084484358
  C           1.21039347242007     -1.03698790202932      2.85349643300052
  C           0.00847983643347     -1.91096793028290      2.99217774133882
  C          -1.14330903714904     -1.47270337087615      3.46597345086894
  O          -0.29715537391820      0.74404448937945      1.16372900684718
  Cl          2.59706085946062     -1.81868972512545      3.69041956124868
  H           1.04536290556200     -0.09433418759915      3.38323299918076
  H           0.14479855301115     -2.94752066928771      2.72282771596687
  H          -1.28993439399430     -0.44309999618078      3.74541491658497
  H          -1.99127261821292     -2.12627518353307      3.56851140956728
  Cl         -0.26396504422410     -2.09633551116596      0.02185861749481
  Cl          2.23176126939388     -1.28922827751078     -1.16031250696014
  Cl          2.21619688862041     -3.30477747790196      0.88468402140078
