20
Coordinates from ORCA-job NEB E -46.214327835030
  C           0.72745857548459     -0.72375804889652     -0.73266099978803
  C          -0.36452871314521     -1.42928987267535     -0.23096226700514
  H           1.68766304566257     -0.89047060094975     -0.26658055376041
  H           0.77280498397220     -0.57289432748359     -1.80346812999388
  C          -1.61803376634686     -1.56326126068664     -1.07805064456122
  C           0.37969712358921      0.99552907841139      0.06095128694972
  C           0.24751542094718      0.69686695255867      1.41495519745098
  C          -0.81350491562577     -0.19341605770395      1.79352435323286
  O          -0.50983611832194     -1.55809334131097      1.06751964199362
  C           1.55883274040110      1.84004220493692     -0.35305156306532
  H          -0.50569848156989      1.24868986641060     -0.51316309778945
  H           1.13002199973735      0.73156936696231      2.03776830181520
  H          -1.80075138788999      0.07522383977712      1.42195261723016
  H          -0.83499391574406     -0.47739904995083      2.83952473388935
  F          -2.25226497382602     -0.35427040072683     -1.20280571470626
  F          -1.31942142830538     -1.94990922909189     -2.33610359777020
  H          -2.34073586875092     -2.27182708909656     -0.64882283145547
  F           2.71350285990227      1.41866511261444      0.18215565022308
  F           1.73539759165880      1.85919040981225     -1.68063917830172
  F           1.40687522817078      3.11881244708919      0.02795679541215
