20
Coordinates from ORCA-job NEB_reactant E -46.240009604860
  C           1.59477334673411      0.17895227684948     -0.01222627807176
  C           1.49897357131862      1.21315024980148     -0.83867490691695
  H           2.15110993890738      0.21236727800294      0.90539126107688
  H           1.10542462961658     -0.74777921715568     -0.24170845962414
  C           0.70309622079149      1.12920753270778     -2.12570990225147
  C           3.09823301197563      4.95701243972978     -0.60909673679740
  C           3.34526990905734      4.11092968129021      0.37687660925490
  C           2.82804308858219      2.71141260469276      0.42744278897893
  O           2.04483383688652      2.44417187968583     -0.71078581240432
  C           3.63216785911942      6.35268389922893     -0.62861857612916
  H           2.49422358597859      4.69471540740916     -1.46332295832245
  H           3.95421177653938      4.39855994025881      1.22293660253986
  H           2.23003104639486      2.58085365520233      1.34220269779135
  H           3.67945929093785      2.01558400820513      0.47807210184658
  F          -0.28008244922808      2.05950386866101     -2.14680887914797
  F           1.49048233888391      1.38369703531519     -3.19727818533826
  H           0.24090653825245      0.14142072011966     -2.26934453735372
  F           4.39142848164252      6.64840438596248      0.43795116520326
  F           4.39322892257983      6.58551465869460     -1.71166069053960
  F           2.64828505502943      7.26803769533812     -0.65833730379454
