21
Coordinates from ORCA-job P E -31.555737969680
  C          -1.16795695177671      0.54032088049057     -2.25769804878858
  C          -0.55276041973055     -1.73292725460669     -0.39708443033916
  C          -1.21237852826471     -1.89846994878406     -1.73304031464722
  C          -1.47933176342657     -0.89796942142427     -2.55413458933954
  C          -0.90988797350267      0.73829086280623     -0.76119396320297
  C           0.03030109901078     -0.33956625165369     -0.21861828475201
  H          -1.46601046943043     -2.91330519889019     -2.00143443624615
  H          -1.94108142355180     -1.08798796963524     -3.51204400368271
  C          -2.30426207632104      1.44867508841303     -2.72664300875226
  H          -1.28449769245881     -1.91711571097082      0.39521671423108
  H          -0.26372370771167      0.81657508139692     -2.81775776877829
  H           0.23617274414331     -2.48197979837870     -0.29250293809277
  H          -1.85425188711055      0.67203510801818     -0.21803859034878
  H           0.25259447696972     -0.13471053250449      0.83492332999743
  H          -0.47700447906616      1.72418149636769     -0.58254905265116
  N           1.33212020396195     -0.20499139524799     -0.92746360135914
  H          -2.45327865258739      1.34854291267265     -3.79877416489125
  H          -2.07386975162286      2.48848504775750     -2.50672551179589
  H          -3.23218455889918      1.18478989663925     -2.22335183867257
  O           1.75328918308823     -1.14275598375347     -1.55557443224934
  O           1.89038262828709      0.86106309128759     -0.81156106563871
