21
Coordinates from ORCA-job TS E -31.452865591100
  C          -0.57571957810352      0.39502562808277     -1.07002991850786
  C           0.74481205786288     -1.97058751539149      0.05357060533927
  C          -0.58614533204094     -1.86539386149644     -0.10852482811110
  C          -1.22766822597765     -0.74428745742141     -0.70248548658557
  C          -0.07017855758124      1.05273868611783      0.95013580135131
  C           0.72337665169003      0.14688105261386      1.57948227653569
  H          -1.23109425133409     -2.61230380981443      0.33518235101692
  H          -2.31025617107431     -0.74323962907351     -0.70193259796851
  C          -1.30413119505540      1.55085317404639     -1.67745841085666
  H           1.17742326080635     -2.78361479080567      0.61139343955592
  H           0.48430660296242      0.36354118269257     -1.27948838771188
  H           1.43925686247344     -1.35072556047603     -0.48451686253229
  H          -1.09089729320531      1.17888082962260      1.26248524500885
  H           0.38986838223654     -0.55861757632494      2.32088853881653
  H           0.40894296109699      1.88824509949089      0.46741149920818
  N           2.11955988232983      0.16962407291853      1.38300262985787
  H          -1.36395948693504      1.40639066090409     -2.75702548630259
  H          -0.78077794555091      2.48765561425984     -1.50393202119841
  H          -2.31720054321884      1.63125079934363     -1.28987011015062
  O           2.80598231321973     -0.49796371075208      2.13618688640454
  O           2.56449960539903      0.85564711146300      0.47552483683039
