19
Coordinates from ORCA-job NEB E -49.082053150070
  C           0.71716047434422     -0.99995637844680     -0.24912305617902
  C          -0.51343679075523     -1.20152974261115      0.43067458371453
  Cl          2.18045410454417     -1.23702093256218      0.68520543138478
  H           0.81678164339755     -1.43185244452510     -1.24266531188407
  C          -1.72725458423845     -1.53083346397093     -0.43409230558288
  C           0.63996446860599      0.83690247155031     -0.49806711861114
  C           0.42549262986377      1.35458236879212      0.79298878013594
  C          -0.77433945376754      1.01113342981515      1.46489030085656
  O          -0.71920458796444     -0.62232538183194      1.56384833297171
  N           1.93039070951929      1.16288215560409     -1.12731299144960
  H          -0.15196753403714      0.88465552445851     -1.24215660308698
  H           1.30284703873918      1.62806300394591      1.36389027332306
  H          -1.70374723441565      1.14621442409962      0.91845953049683
  H          -0.85044863293809      1.30599925207384      2.50410604467124
  F          -2.75840550865112     -1.95918956166006      0.28625090038011
  F          -2.16662669964836     -0.44381683652772     -1.12133756754973
  F          -1.45063188032503     -2.45921983539284     -1.35547479314169
  O           2.84118769670071      1.48015221410361     -0.41111730388479
  O           1.96178414102618      1.07515973308556     -2.32896712656487
