19
Coordinates from ORCA-job NEB_reactant E -49.121071440930
  C           2.55586818377333      0.64729884105427     -1.11708514600834
  C           1.39892676300927      1.29867129914036     -1.23816484331670
  Cl          3.95377075010558      1.15359342491994     -0.25626081390907
  H           2.68037033614473     -0.30900156308751     -1.59941065276354
  C           0.29237384763395      0.68006388802548     -2.08194312714596
  C           3.02073917522161      3.94560712494922     -2.08047203420988
  C           2.89318319819645      3.94737120356539     -0.75929631717128
  C           1.77452067692486      3.32195366491599      0.00204261294088
  O           0.93924471367247      2.48035553882831     -0.76914519104058
  N           4.14513301275436      4.58136537676298     -2.70820111336941
  H           2.33582075830073      3.49044003967597     -2.77961115979525
  H           3.64465285270843      4.45059304373319     -0.16328149854189
  H           1.10244695368378      4.11224516221755      0.35770431156375
  H           2.16374826446850      2.79016876145496      0.87709542696455
  F          -0.85873111616766      0.60840371332569     -1.41163064271050
  F           0.06256884739057      1.41394201723314     -3.17836572011755
  F           0.58016882727905     -0.55599371156516     -2.49838387097235
  O           4.95941095626846      5.13372003379719     -2.00194412089686
  O           4.19718299863152      4.51430214105306     -3.91554609950002
