19
Coordinates from ORCA-job NEB_product E -49.116460810770
  C           2.12312716059770      1.68461216226046     -1.25041121677437
  C           0.95706830726514      1.52626471049992     -2.22520724909793
  Cl          1.59070562229299      1.02430051297378      0.32347915819108
  H           3.00257062977952      1.12037345705762     -1.56830782112349
  C           1.13371266130663      0.36809468681222     -3.24764976199628
  C           2.43109194516687      3.17475684283210     -1.11346591730235
  C           3.66030877434290      3.47406172229448     -0.31322864572179
  C           3.66480149162282      4.27177097056011      0.73770947450524
  O          -0.08435577579097      2.10427986278386     -2.11972778596302
  N           2.58607828124090      3.69832361779511     -2.50948218173192
  H           1.56041384384118      3.69210113463203     -0.69019700066970
  H           4.56363775911122      2.98839187717432     -0.65438229769184
  H           2.77170586142028      4.76186140266068      1.08743879619464
  H           4.56625794875378      4.46320061969999      1.29185939822520
  F           0.37021548349782      0.51911985690581     -4.31814181542684
  F           2.40067717318176      0.22581419007068     -3.65476847884240
  F           0.79347828904096     -0.79195460368602     -2.65962313182907
  O           2.18427800517328      2.97332045906658     -3.39797752322140
  O           3.07972653815522      4.77630651760628     -2.65301599972373
