18
Coordinates from ORCA-job NEB E -41.668550837920
  C           0.68353208615799      0.81505055778637      0.47797747961922
  C          -0.62430723770968      0.33278947449662      0.74816718849784
  O           0.76137179372241      2.02601945800159     -0.21612348978589
  H           1.39575853177339      0.75660727744225      1.30386480989070
  C          -0.87134760265540     -0.64971272711510      1.85671591052863
  C           1.31526176169425     -0.25553320241310     -0.83284084851737
  C           0.22864061250579     -0.82028879528185     -1.52993600657689
  C          -0.89326416899977      0.08166236796369     -1.67511719038209
  O          -1.45771429180091      0.22847849553960     -0.26671554992305
  Br          2.62020577903659     -1.48387430780639     -0.13309687937902
  H           1.83933935138049      0.56350792282071     -1.32102317201940
  H           0.00880399146697     -1.87011171560231     -1.39602725897942
  H          -1.74085950499358     -0.30740259835436     -2.23088455092947
  H          -0.62017140512897      1.08756876689402     -1.99858423740276
  H           0.32952446142392      2.71810026612951      0.29784911360676
  Cl         -0.43700649060843     -2.32709761080322      1.34948599310202
  Cl          0.06198755757378     -0.24965423367887      3.30124116721077
  Cl         -2.59975522483884     -0.64610939601917      2.26504752143941
