18
Coordinates from ORCA-job NEB_reactant E -41.706616108750
  C           1.71132610552285     -0.20523838428099     -0.05184343813503
  C           1.60836831982769     -1.53805192606977     -0.06321183599886
  O           1.94564269878669      0.55602629130637     -1.16145206794487
  H           1.59807085966082      0.31714669478257      0.88528430945117
  C           1.34298322213233     -2.33384546161534      1.18129085181936
  C           3.81279047946144     -3.53027461375314     -3.63177255027666
  C           2.64716721711668     -3.15757004238515     -3.13708051636599
  C           2.47784182143761     -1.96722496581750     -2.24824216970410
  O           1.73676837908136     -2.39751601081309     -1.11501889154663
  Br          4.00146569964964     -5.01297298057327     -4.78264057766543
  H           4.74280076975439     -3.01633217950798     -3.44642018573345
  H           1.74356450929565     -3.71256889738067     -3.34172856011283
  H           1.92605391865959     -1.18275112034064     -2.78206468712670
  H           3.44831943407970     -1.56392033740166     -1.93651887092369
  H           2.01688302557756      1.48235984312723     -0.91017367955052
  Cl          2.82058160990500     -3.25747697676188      1.59828192766398
  Cl          0.89629140206226     -1.35791511162922      2.57737476874683
  Cl          0.03408052798874     -3.49887382088587      0.87503617340339
