18
Coordinates from ORCA-job NEB_product E -41.707446763080
  C           2.67827148928216     -1.60642219142646     -0.68430780101869
  C           1.51755332645159     -2.42864635916602     -0.10340124453870
  O           2.22935343764712     -0.30070393094895     -0.94027445591132
  H           3.51052000609491     -1.60655309820250      0.03586087148374
  C           1.57658161639872     -2.59075644407776      1.43083439913258
  C           3.18030962393665     -2.18026941104025     -2.01604471435276
  C           2.19043972907262     -2.13574738117188     -3.12470544098495
  C           2.43843908721153     -1.53070504881177     -4.27185856220165
  O           0.59712859164122     -2.86145913478168     -0.72357084349385
  Br          3.72418068033021     -4.04472356872683     -1.66775552037567
  H           4.09612609543340     -1.65484794306079     -2.29621438637359
  H           1.25240259140078     -2.63802946134766     -2.94365581834228
  H           1.70849762458279     -1.50718521786660     -5.06149324285557
  H           3.37307643555182     -1.02960810831716     -4.46516929237848
  H           2.03184898090681      0.14681265286784     -0.10674677547983
  Cl          3.01607792720121     -3.54735199010253      1.85286737057806
  Cl          1.70676959233102     -0.96913777533804      2.16167046777443
  Cl          0.12502316452544     -3.39116558848095      2.03566498933854
