22
Coordinates from ORCA-job NEB E -59.774376001920
  C          -0.06461365875900      0.88496585584055     -0.62037871229423
  C          -1.31683036749038      0.27263431539253     -0.84691011159482
  C           0.97047345076051      0.75699932648542     -1.71632789457221
  H          -0.13768223152604      1.91569938834109     -0.27045923752472
  N          -2.45439489664411      0.86449055214349     -0.17320217656271
  C           0.41823722815785     -0.10693814204458      0.96118891133065
  C           0.29083505925507     -1.43651145422672      0.54104431434394
  C          -0.98519557773460     -1.90209595534088      0.04211959399817
  O          -1.41701096520320     -1.00109973601165     -1.10989295007111
  C           1.71898223773852      0.31285573855775      1.60704769074461
  H          -0.39760718102855      0.31619062212096      1.54320889420322
  H           1.17718969298644     -2.01663363550606      0.34150579584740
  H          -1.81804160528088     -1.80266775294344      0.74425522804741
  H          -0.95875292140699     -2.89703222208216     -0.39284484367314
  Cl          1.44811399481697     -0.89754548954728     -2.08639359802158
  Cl          0.20507578296188      1.44421196539805     -3.19872139836211
  Cl          2.41394984845693      1.73252487101389     -1.40078192825003
  O          -3.38741732782214      0.12702903637275      0.06523628673967
  O          -2.37926468666280      2.03975439353827      0.13101456530206
  Cl          1.66705111201133     -0.33248759415826      3.28774201549350
  Cl          3.15639429687381     -0.35350881524149      0.82707269260490
  Cl          1.85050871553938      2.07916473189779      1.72447686227110
