23
Coordinates from ORCA-job NEB_product E -43.343979298040
  C           1.43084177304016     -0.24005288035486     -2.17482951159095
  C           2.67977321731095     -0.94114235090220     -2.72068883262645
  C           1.73849786753508      1.08546915743793     -1.51979185236404
  H           1.02757635408425     -0.91267234926074     -1.40466296610954
  O           3.80736213014614     -0.33662615910590     -2.37925387167436
  C           0.36120892102069     -0.19020206980186     -3.32146157010635
  C          -1.03918078864381     -0.33748302416938     -2.77084505189772
  C          -1.48581081086413     -1.43107415536975     -2.18211258771274
  O           2.61737861073207     -1.94771249466937     -3.37285954694991
  N           0.56463701971757      0.98881401365665     -4.13520597052383
  H           0.58140033262176     -1.07812922793408     -3.92773457945154
  H          -1.68923927809443      0.51738023457463     -2.90276252276116
  H          -0.86472413608229     -2.30319338036497     -2.05256129233672
  H          -2.49196193652645     -1.50044790471529     -1.80846466212539
  Br          0.10700093143340      1.97514763873421     -0.92730396004869
  Br          2.79493269778910      0.79802494472632      0.10100652383068
  Br          2.70289575117395      2.32750679694537     -2.63820149239953
  C           5.01805935538886     -0.92136985980873     -2.84327145960261
  H           5.09767010830622     -1.94993289764019     -2.48790308125858
  H           5.81970370487279     -0.30928624152085     -2.43895770951853
  H           5.04039299290113     -0.91642416356508     -3.93403801492832
  H          -0.03369905196341      1.75575671680940     -3.84709289292435
  H           0.39778423410040      0.80934965629874     -5.11490309491937
