23
Coordinates from ORCA-job NEB_reactant E -43.336968128260
  C           1.37670464813688      0.37972043667389     -0.87086284240932
  C           2.15937976200869     -0.38718529415599     -1.66290335236442
  C           1.99217728531038      1.35253269816032      0.02690679226683
  H           0.30596296450925      0.29603764322567     -0.87132934567741
  O           3.48461269945227     -0.21887340318620     -1.57669779781486
  C          -0.29726024601592     -0.45319385324012     -4.94850173284442
  C          -0.20163266308020     -0.39319866424420     -3.61831631356312
  C           0.37323059720071     -1.50568587202510     -2.80651111251855
  O           1.77176819798585     -1.32453035603929     -2.52865475777243
  N          -0.69121452571118      0.57681298998185     -5.75771036552154
  H          -0.00434066702477     -1.35094950695617     -5.47693513077559
  H          -0.48132413065707      0.51124428269493     -3.09967208036457
  H           0.35190273477976     -2.44213049722976     -3.36780184409607
  H          -0.16391239832989     -1.64104569047940     -1.86136482567376
  Br          0.65100935132925      2.32391780230822      1.03425535147896
  Br          3.22755175036006      0.51798371375447      1.34407177366522
  Br          3.08822082415368      2.69707314271146     -0.94021196577244
  C           4.31711786097897     -1.00880693282176     -2.40477588546867
  H           4.19809172465912     -2.06962325976490     -2.17552364695849
  H           5.33182422128433     -0.68750787503325     -2.18110603418787
  H           4.08989855776778     -0.83804469918002     -3.45892275399583
  H          -1.11178100596172      1.37108082343999     -5.30215047189773
  H          -1.07938754313623      0.34477237140537     -6.65578165773392
