20
Coordinates from ORCA-job NEB E -40.011963398200
  C           0.39843780418199      0.84991179290002      0.38902382441471
  C          -0.84628923378331      0.21734126691651      0.54787906996556
  C           0.47379304351210      2.00237861931453     -0.58753613248203
  H           0.93763388881767      1.05492959147321      1.31219453860900
  C          -1.24737167981086     -0.33340760374679      1.88090970442379
  C           1.45361434137777     -0.51039354203239     -0.47751193300736
  C           0.59851414341799     -1.53972749045850     -0.87725302022047
  C          -0.60302811979239     -1.11852626679715     -1.53501317944438
  O          -1.45723333379898     -0.31489430806567     -0.47349346318539
  F           2.42690388534543     -0.82203571628561      0.40003934860750
  H           1.85134000929562      0.16175374132468     -1.23331814550419
  H           0.56629106361940     -2.43180294963719     -0.26715981258391
  H          -1.28970641852885     -1.90839679525613     -1.82065214514068
  H          -0.46514181239129     -0.39360857151285     -2.33598282775436
  H          -0.03662128373709      1.77515605055665     -1.51969292187474
  H           1.50436435386285      2.28104676735879     -0.79165449793899
  H          -0.01920888389889      2.86206255907323     -0.13319907292904
  Br         -1.22430549357054      1.05414213125203      3.23974052967567
  Br         -3.01942605487857     -1.09458728055672      1.77813596860692
  Br         -0.00256021924006     -1.79134199582066      2.50454416776240
