20
Coordinates from ORCA-job NEB_reactant E -40.046089486860
  C           1.95223329813600     -0.15975039926769      0.06508128161136
  C           1.48809226648707     -1.40545247209306      0.14387064825995
  C           2.04509980595169      0.63767963794342     -1.18717544595728
  H           2.27766304810858      0.33369844570463      0.97047380399262
  C           1.37593400386377     -2.10863986079704      1.47223207895158
  C           3.90119312828824     -3.98877222825922     -0.91820585547438
  C           2.63713958375473     -3.91891254661896     -1.29255772191685
  C           2.01643679156631     -2.65946614402592     -1.81330360077610
  O           1.03179436047100     -2.13528825596808     -0.91828791298218
  F           4.43908240403449     -5.11984291363610     -0.45497248829204
  H           4.62326980128647     -3.18375049145494     -0.95730662306805
  H           1.99275382532170     -4.78036632903207     -1.19894207147602
  H           1.45936565743802     -2.86891253368543     -2.73017699179579
  H           2.78799223007704     -1.90828895531025     -2.01188518300868
  H           1.50309326618132      0.16164376414203     -2.00007003671259
  H           3.08859716138711      0.76990570884941     -1.47533141751772
  H           1.62697866128662      1.62755038734358     -1.01304709968149
  Br          0.49704921632788     -0.99534096660831      2.81523744838752
  Br          0.37395581594873     -3.74754216283347      1.31087435657745
  Br          3.17597567408323     -2.54615168439253      2.17129283087868
