21
Coordinates from ORCA-job NEB_product E -44.107467811770
  C           1.02240980542736     -1.19717748140651      0.55254862204303
  C           1.92847279280553     -2.40820339341610      0.32383490507120
  C           1.74019097523082      0.13402743315110      0.44052489131499
  H           0.32206234624399     -1.24167593990160     -0.29457198734393
  C           3.09953317887492     -2.70451421886779      1.24776572345497
  C           0.11891760336932     -1.30581071509060      1.84197682501805
  C          -0.25524893177745     -2.75161815982060      2.02815064976428
  C          -1.30137808237321     -3.31777674806772      1.45869099890131
  O           1.72952953999092     -3.12338419411235     -0.62175442631823
  O           0.67901111777730     -0.71630177718888      2.96727708684982
  H          -0.78143320824365     -0.71488002459914      1.62957820243344
  H           0.40627399417677     -3.31783125472692      2.67083614503703
  H          -1.97391482596548     -2.76409478530925      0.82482173866615
  H          -1.52716478993752     -4.35952015890851      1.60212785489035
  Br          0.43126728149174      1.58489442110744      0.37703218356863
  Br          3.00395338952815      0.55743609511922      1.84185899657104
  Br          2.74491640539073      0.17093232625454     -1.26254865613219
  F           2.82901693360867     -2.46626636847630      2.56690938032343
  H           3.95898092833221     -2.08176699852907      0.96803070031858
  H           3.36729584360563     -3.76083644582902      1.14854590533249
  H           1.29210770244325     -1.32043161138193      3.40736426023553
