21
Coordinates from ORCA-job NEB_reactant E -44.114368066060
  C           1.35237404606530     -0.52233391592112     -0.03712875302424
  C           1.90620665680708     -1.55596331432579      0.61594018871097
  C           1.98673227765294      0.37842014208061     -1.01735725390647
  H           0.32947971373737     -0.25881776310777      0.18929812711017
  C           3.33166178447819     -2.03876467177011      0.49692277051149
  C          -0.95719187089079     -2.96953472685676      3.92945632189904
  C          -0.58849076919380     -3.20958926468214      2.67724375257128
  C          -0.13841031357468     -2.13934537919590      1.73872084230882
  O           1.25242618976951     -2.34208990269916      1.48695676502853
  O          -1.36637764603830     -3.88474563945917      4.82366142481527
  H          -0.98238244609670     -1.97287034666573      4.34739582421002
  H          -0.56275527642566     -4.21841415175192      2.28992270432756
  H          -0.29491102887593     -1.15031880031043      2.18490819006404
  H          -0.68767343072255     -2.20234361166507      0.78935393549495
  Br          0.58447311688987      1.30589724611221     -2.03109658643721
  Br          3.07839932218921      1.79866159665440     -0.15023399490353
  Br          3.10275253529505     -0.51203368341544     -2.35161521963773
  F           4.21980906286345     -1.00256837137970      0.45718840734189
  H           3.47928849489908     -2.63019756648139     -0.41477155216499
  H           3.56773004603646     -2.64442418289410      1.37684791972075
  H          -1.32984046486507     -4.77142369226548      4.44088618595939
