24
Coordinates from ORCA-job NEB E -36.352262912330
  C          -0.87232818831542     -0.16885735383609     -1.06702764766353
  C          -1.17764811476781      0.77280310525393     -0.07224209011780
  Cl         -1.82388794091461     -1.63248841580063     -1.13234165489210
  H          -0.61029461167068      0.16439560423271     -2.06324992762667
  C          -0.83405069942009      2.22634612085633     -0.35280012929821
  C           0.89445183257273     -0.77458297250784     -0.32062636728069
  C           0.43789597941596     -1.31516288057744      0.89232926279658
  C          -0.06135927775745     -0.44779944411456      1.86179613292563
  O          -1.47100290734525      0.37817558384381      1.10199541866852
  O           1.48836989863205     -1.46917461465021     -1.32015139381018
  H           1.34271187570776      0.21569744894902     -0.29126636321912
  H           0.10242620354914     -2.34112627345492      0.90397267039033
  H           0.46964871341102      0.47136537203225      2.06117240833753
  H          -0.54479392339976     -0.87650889776693      2.72621143446934
  C          -0.29671051788827      2.96259993818895      0.86935289404015
  H          -1.75883284879840      2.71038879887474     -0.68186735504599
  H          -0.12615658249199      2.27979086494822     -1.18208441791011
  H          -0.93907188164878      2.77216106092805      1.72558638764324
  H          -0.26917372822118      4.03324161379318      0.68332065647064
  H           0.71208152614809      2.63263868254082      1.10819419824043
  C           1.34847810240376     -2.87839934523110     -1.34413721559669
  H           1.87120666701114     -3.20549156852519     -2.24096364851047
  H           0.30201871439205     -3.18117919727833     -1.40161178639284
  H           1.81602170939600     -3.32883323069878     -0.46356146661800
