24
Coordinates from ORCA-job NEB_reactant E -36.391687957430
  C           2.70783710971422      0.53599614602337      0.70743611504930
  C           2.03972557626420      0.43751887639228      1.85483650844332
  Cl          4.25998071276016     -0.11341482675635      0.28522011848807
  H           2.27556364365783      1.09128942233456     -0.10743687107633
  C           0.71940646913168      1.16477759412141      1.98887104432041
  C           4.30124275908630     -2.94650279550018      1.83467523276935
  C           3.30218560287431     -2.32417739147744      2.44646597565201
  C           3.46893282317797     -1.01972517887650      3.16750978781559
  O           2.33630964429461     -0.17648099909712      3.02246793880222
  O           4.28136500984867     -4.12953578949427      1.18221668175036
  H           5.30152048937054     -2.53484623577620      1.81672754612211
  H           2.30075392795357     -2.72558225271825      2.47341778891409
  H           4.38796552554374     -0.51128164459240      2.86389580502728
  H           3.50959376424687     -1.19436741952012      4.25027299638906
  C           0.92696999286150      2.54446995705194      2.61229378953678
  H           0.07218459318155      0.57103311964896      2.63511652633898
  H           0.24786218213194      1.26519460709425      1.01219102001601
  H           1.39640944987949      2.44707535823166      3.58739972078512
  H          -0.02773423985089      3.05002695084240      2.73415838073308
  H           1.56662652071979      3.15339309556243      1.97841457445440
  C           3.04608679578319     -4.79847919932929      1.08555050281186
  H           3.23889838922006     -5.70772429498758      0.51916707315489
  H           2.30648626323907     -4.18804388805790      0.55799360236781
  H           2.65802699490960     -5.05881321111967      2.07553814133424
