24
Coordinates from ORCA-job NEB_product E -36.391278777410
  C           2.41233904457382     -0.62941898984947      1.24960546985093
  C           1.87791282761669      0.35929922864711      2.28172072951745
  Cl          1.06306438826803     -0.99787608475484      0.13782578103676
  H           3.18664292979828     -0.15765419094959      0.63781863596179
  C           1.45415555089742      1.69359670174010      1.72237118633763
  C           2.99469795668210     -1.90510903063545      1.87269734613557
  C           1.93021262645264     -2.93083700434847      2.16403569838386
  C           1.35513441975224     -3.07472322366055      3.34157693254982
  O           1.84996935171171      0.10044482907961      3.45575405113599
  O           3.97415539164380     -2.38448729026503      0.97021340570050
  H           3.47824075858804     -1.60437424991153      2.81880225987251
  H           1.65838548859384     -3.54657368992978      1.31746778243520
  H           1.62143920566505     -2.45055659582858      4.17804785960961
  H           0.58038973583581     -3.80366318804356      3.50704929979987
  C           2.66391129375814      2.63477565835447      1.72006165191761
  H           0.67974366463525      2.10916923301234      2.36833439609505
  H           1.06609834330822      1.58308153783997      0.71107637155739
  H           3.06934952152503      2.73031221478668      2.72441616432261
  H           2.36204103261569      3.61904081786502      1.37205698762730
  H           3.44594833135589      2.26148321226656      1.06311143047701
  C           4.77626988350466     -3.40446327523940      1.51057667878118
  H           5.49215287362920     -3.67205008029206      0.73627693163623
  H           4.18377864448110     -4.28444666836175      1.78316753118202
  H           5.31136673510733     -3.05186987152178      2.40123541807611
