15
Coordinates from ORCA-job NEB E -31.684244267560
  C           0.75239494077845      0.64134414236841      0.18771377032709
  C           0.05762143922859      0.36364347741368      1.48423036498949
  F           1.94624634064008     -0.05489699887222      0.12126545987720
  H           1.02396396120019      1.69280192034179      0.04314418139476
  C           0.56339064443610      0.68086038999851      2.71900371258733
  C           0.31708389068767     -0.66459562724442     -1.95199300848479
  C          -0.27392762352879      0.14341873979273     -0.87818952384404
  C          -1.29490362727563     -0.65430068634452     -0.02643695213993
  O          -1.09067428400496     -0.32830893728757      1.33009162453099
  F           0.28846095620149     -0.17519465505966     -3.19766837529602
  H           0.94834663167187     -1.52236463100073     -1.81901210858132
  H          -0.75742969573106      1.01763767353911     -1.32137542156529
  H          -1.15251836758594     -1.73605829699442     -0.14894248643152
  H          -2.32542646931173     -0.40393713576530     -0.28648149551883
  N           0.99737126259369      0.99995062511462      3.74465025815488
