15
Coordinates from ORCA-job NEB E -29.974900771800
  C          -1.05976701460398     -1.00022330830352     -0.30012470816382
  C           0.30405425593097     -1.28701306207673     -0.31843478451018
  Br         -1.98578392216006     -1.39911175186463      1.31329541999518
  H          -1.64638218895775     -1.21133700095654     -1.18263080488955
  O           0.84705557673591     -1.49652693097334     -1.53744239933020
  C          -0.89941647034298      1.09491371169040     -0.19535751925283
  C           0.41838660607127      1.34771622565417      0.14921776866191
  C           0.95353626998514      0.63807014935112      1.23890561755516
  O           1.07343878040198     -1.01196570903919      0.65687558103079
  Br         -1.54071968961906      1.76259129100774     -1.85839831553441
  H          -1.67731481909032      1.11335337746422      0.55456271254391
  H           1.09765527101256      1.67024714055307     -0.62985639365771
  H           0.31099247073558      0.45361787503876      2.09099942405618
  H           1.99095455463295      0.79539984439686      1.49586846558639
  H           1.81331031926780     -1.46973185194238     -1.47748006409083
