15
Coordinates from ORCA-job NEB_product E -30.028675554010
  C           1.50052509539050      1.67984139967088     -0.09475403714720
  C           2.78747630338501      0.88192375372982     -0.36912446357329
  Br          0.86439741677586      1.18371917940146      1.68528957660463
  H           0.71271034996451      1.38658201901550     -0.79649500568492
  O           3.20173337305681      0.89784237077024     -1.63435272388762
  C           1.70584653690405      3.19231927379424     -0.10344334649983
  C           2.91256298022135      3.62483590612228      0.65265180242550
  C           2.85537629708887      4.45831399085832      1.67523304428068
  O           3.36902532302037      0.28604177358260      0.48307033173036
  Br          1.84957922083663      3.81139899068496     -2.00399078949174
  H           0.80681934799175      3.68902882833032      0.26926654108860
  H           3.85322331237549      3.20676265748335      0.31947668138487
  H           1.92337131566807      4.87738986397988      2.01825237309139
  H           3.73976599157244      4.74092128872837      2.21763430844451
  H           2.69548713574828      1.47227870384780     -2.23191429276595
