24
Coordinates from ORCA-job NEB_product E -55.725765734990
  C           0.79690902847710      1.64855207142245     -0.33380285409774
  C           2.26975472863782      1.48429640047286     -0.71337992152107
  O           0.68686424416553      1.89088223763062      1.03737353396922
  H           0.24154715814964      0.73293076044014     -0.60869565142616
  C           2.58979719468609      0.54115732278320     -1.86723792233598
  C           0.13918430661624      2.83878705255850     -1.08434797579860
  C          -1.12398403325381      3.26223041988211     -0.38291504054818
  C          -2.31914072506833      3.13146301068162     -0.92401650555961
  O           3.17101449458574      1.95176561209657     -0.08498249877614
  C           1.08703192066254      4.03086200538920     -1.18755251202721
  H          -0.09254696124022      2.54533976101234     -2.11301884531691
  H          -0.98061345546662      3.67646511186459      0.60304206059434
  H          -2.46174515981643      2.71377128331197     -1.90742217740869
  H          -3.20547474653168      3.44553958976657     -0.40225668935353
  C           0.99713361150009      0.78892487925633      1.86253188169268
  H           0.75561170259489      1.10560624096807      2.87379992865912
  H           2.05774963577963      0.52466938176614      1.81360487243182
  H           0.39255510877891     -0.08519364112049      1.59380582054311
  Br          2.46578131593158     -1.22413549204887     -1.01180133482036
  Br          1.36935910278813      0.57891366315592     -3.35642283692262
  Br          4.39177847530621      0.83590799957640     -2.48269769935639
  F           1.57097636595511      4.45322786108454     -0.02648995209463
  F           2.14238807903820      3.73871661642801     -1.97873258664676
  F           0.47866860772366      5.07531985162122     -1.76478509387968
