20
Coordinates from ORCA-job NEB E -41.977705519220
  C           0.47953087174016      0.77094660196269      0.50582767979370
  C          -0.81691171175937      0.25001746722557      0.65539529024849
  C           0.64724786246008      2.02323104471462     -0.32341346827234
  H           1.08074864673839      0.78015670614528      1.41125318227084
  C          -1.09774427220996     -0.58300411765617      1.90551493354426
  C           1.31611049167613     -0.58210083152618     -0.59146545115553
  C           0.32337049722077     -1.43568097648912     -1.08129599033319
  C          -0.82711237341786     -0.81635876852604     -1.62943524890484
  O          -1.55132091528677     -0.02647459524137     -0.37237299922536
  F           2.26054554572736     -1.13443033265323      0.19540474027241
  H           1.78008315409658      0.13320988028739     -1.26473627657662
  H           0.20003961459463     -2.38143599670877     -0.56975239731804
  H          -1.62974813085716     -1.46793839855298     -1.95040101484106
  H          -0.65563895081944      0.00824749162513     -2.31503767600341
  H           0.06565380040219      1.97747353418631     -1.23966539838931
  H           1.69180178453074      2.20959831954896     -0.55885469140631
  H           0.28327253426832      2.86498751192128      0.26483441071870
  F          -2.40422747617812     -0.76178955540957      2.11199848779672
  F          -0.55070726194587     -1.81608490703314      1.83515933619787
  F          -0.59499371098081     -0.01257007782067      3.01104255158303
