19
Coordinates from ORCA-job NEB_product E -38.969246513270
  C           1.41339697987044     -1.26730449584734      0.83468283480065
  C           2.63009660036146     -0.75778872558367      1.59676862210037
  C           1.82499934255199     -1.69399933348953     -0.57847235309166
  H           0.70749166024244     -0.43572613274396      0.72300883641201
  C           2.35608052990595     -0.52691329262761      3.00574451969315
  C           0.72345043669699     -2.38943985500300      1.65936657907920
  C          -0.31439077311575     -3.10577913269118      0.84116099865978
  C          -1.59568934938902     -2.79235649688451      0.85716335645480
  O           3.70110270484367     -0.53344245676940      1.10432060115788
  O           1.75434041589782     -3.23522565148119      2.11810475026219
  H           0.23343368233440     -1.90544825857027      2.52303334401055
  H           0.06300475196280     -3.90407677164413      0.21770200527576
  H          -1.97909777094344     -1.99461696777583      1.47268999996884
  H          -2.31186214444074     -3.31795536381331      0.25111404022638
  F           2.21063543073127     -2.98205803558443     -0.64586851715192
  F           0.77395981545610     -1.56964911861713     -1.42873481726847
  H           2.64881556943453     -1.07369884726871     -0.96602940735570
  N           2.14663507571464     -0.32709876844509      4.11226190335356
  H           1.39269704188444     -4.10212229515971      2.32958270341265
