21
Coordinates from ORCA-job NEB E -46.073539828270
  C           0.10662387372761     -0.19569298042408     -0.91147684312165
  C          -1.23664089076681     -0.90757590431970     -0.71378551993784
  O           1.05731412479765     -1.12530098996429     -1.35059800027027
  H          -0.10537126683204      0.53292853071317     -1.72155278840499
  C          -1.26299092063929     -2.39577904000531     -1.05428905152739
  C           0.63439810387276      0.67439493527858      0.26071493714142
  C          -0.33640912450249      1.72931825875473      0.72616309952618
  C          -0.07871169358114      3.01991769649915      0.63215624951939
  O          -2.25045572924462     -0.31766392354272     -0.46066173097517
  C           1.08112898504067     -0.18648597074208      1.46081081155778
  H           1.54402328019891      1.16595578689249     -0.10753064773555
  H          -1.22131386944256      1.36575032102761      1.22487725083527
  H           0.80780025345261      3.39715382832055      0.14832906323640
  H          -0.76112087662296      3.75608100491138      1.01691508294064
  H           1.91587637762275     -0.70521490817855     -1.47346385677294
  F          -0.51926936658832     -3.16142553464821     -0.20719600908170
  H          -0.83970683416825     -2.53024449109522     -2.05715011407343
  H          -2.29710622848123     -2.75274907742002     -1.00390152436777
  F           0.67211533984681     -1.45058512186457      1.41869106977563
  F           2.42484487357222     -0.21962556071483      1.53347852244585
  F           0.66497158873773      0.30684314052197      2.63946999929016
