21
Coordinates from ORCA-job NEB_product E -46.086048469580
  C           3.13726296624278      1.15006822149012     -0.06391303249133
  C           1.66346196881776      1.11457056076506     -0.48394758488114
  O           3.45355020245355      0.00511292140395      0.65467615348851
  H           3.79553181679659      1.18964754528963     -0.93957022432155
  C           1.32824453821342      1.89627228972539     -1.73679316491215
  C           3.33791618437210      2.45236838829813      0.77896033694435
  C           2.55443590823916      2.40065686461401      2.06035554172694
  C           1.51779847888523      3.17583965156051      2.31231547957854
  O           0.86833109886288      0.48718506389440      0.15840601111871
  C           4.82296694561954      2.63570277938023      1.08733850615817
  H           3.04276817809725      3.32130658140978      0.18252732531950
  H           2.89503718418102      1.66428678094720      2.77438702348565
  H           1.16944382088148      3.91557005324516      1.61035073572283
  H           0.97333738146315      3.09977909894226      3.23626520119129
  H           2.65355116205908     -0.29051675681196      1.11925737128879
  F          -0.01195984404514      2.11590881740000     -1.84593673482245
  H           1.63872992291734      1.30875923975239     -2.61098467011403
  H           1.82810169573934      2.87032891665859     -1.75532101243246
  F           5.32812211756833      1.71223963349405      1.89968173696225
  F           5.56652304601591      2.62915680513680     -0.03259113011559
  F           5.04364522661922      3.82615654340431      1.67133613110515
