21
Coordinates from ORCA-job NEB_reactant E -46.082914081460
  C           1.83910423861857      0.47979451656277      0.28629195834664
  C           1.40568479324564      1.43827097175511     -0.52937452731568
  O           2.19852457149645      0.64607531578304      1.60428450264019
  H           1.90047420943545     -0.52377355310611     -0.10749875841535
  C           0.99176885254094      1.13202778269667     -1.94780929815525
  C           4.02799797576961      3.11057744478138      1.93238097152178
  C           3.28133395963603      3.29790064177386      0.85736928050999
  C           1.78496437852602      3.33443884158786      0.87331275157746
  O           1.22710756241945      2.78259710577258     -0.29986489971943
  C           5.52011952674548      3.06269972252450      1.89013929139696
  H           3.61303997150039      2.95798738520452      2.91646589514981
  H           3.73502263424604      3.42947795417173     -0.11646961139267
  H           1.45233526254142      4.37886921632534      0.86428099611650
  H           1.39632489838114      2.84096174083399      1.76881671361775
  H           2.63917729861957     -0.15090488376749      1.91324788565953
  F           0.96320796053069     -0.21147909438209     -2.19772591956205
  H           1.69453593480436      1.57826703169972     -2.66154326295689
  H          -0.01380014658713      1.52435269708563     -2.13526858543552
  F           5.98924686421579      1.85368876918776      2.25833086138612
  F           6.03353736267058      3.31281443757727      0.67849347339676
  F           6.08089189064350      3.94805595593197      2.73364028163334
