23
Coordinates from ORCA-job NEB E -44.246101029890
  C           0.53207123875358     -0.05142424228250     -0.71943671265758
  C          -0.46626717986332      0.50184995845893     -1.51642424423240
  C           0.30941974585302     -1.44763264210514     -0.18514369927941
  H           1.55835317903394      0.13495625291792     -1.02033458274350
  I           0.11694487355006      2.13022925716286     -2.82180814352600
  C           0.24039830630741      1.14607169193702      0.82385108403874
  C          -1.11761662645838      1.01237372241912      1.09650269322174
  C          -2.03504500650429      1.40465710310101      0.07144638855381
  O          -1.69820190276406      0.46997206841897     -1.18019175566318
  C           1.22004560017971      0.73342182838929      1.89036135762211
  H           0.58964484653936      2.04880527305985      0.32966560629351
  H          -1.43347714707570      0.27546898514127      1.81971952227969
  H          -1.88108908370126      2.39635405579438     -0.35301005451102
  H          -3.08152152933555      1.19634061761758      0.25959741243489
  C           0.50292281721049     -2.45770799625250     -1.31576162478541
  H          -0.70045189195109     -1.54010374615617      0.21654455525206
  H           1.02514331282970     -1.66570622077925      0.60655116134781
  H          -0.22853862560452     -2.29142820626033     -2.10318981504914
  H           0.38000398255612     -3.46750135927159     -0.93351556946056
  H           1.49896591275252     -2.37011598370098     -1.74364611474047
  F           0.81686049454386     -0.31571809159823      2.61873022425854
  F           2.42854022224494      0.41734843404999      1.40033392508014
  F           1.42289446090347      1.73948923993850      2.75915838626562
