24
Coordinates from ORCA-job NEB_reactant E -55.180705872550
  C           1.67580685905282     -0.10295770832333     -0.25192756485137
  C           1.90836161669216      1.06049685761194      0.38096737515183
  C           1.60752303894452     -1.37411943594309      0.47986543026362
  H           1.53666726898534     -0.10435427840255     -1.31921766900079
  O           2.08028844135183      2.18766692679607     -0.33326276571130
  C           4.90180362087844      0.85743756837714      3.38101642547695
  C           3.60011976687148      1.09320241939729      3.40611046038068
  C           2.89767698279577      1.93456997280629      2.38601150930175
  O           1.95326470453676      1.08337422005503      1.72536097764649
  C           5.62873816316397     -0.04553520030093      4.31047282119166
  H           5.54222537149512      1.29928389714797      2.62973631155695
  H           2.95657798123697      0.63203244450272      4.14024124883285
  H           3.60853608836696      2.34682819289636      1.66457535872709
  H           2.34847842212972      2.74571690249737      2.87941052086919
  Br          1.29154212933232     -2.85945406581539     -0.72373925257715
  Br          3.27354962993210     -1.75446327259752      1.46993101775931
  Br          0.16321390591576     -1.38009002467280      1.82553288727722
  C           1.44734711062803      3.37758923018759      0.13385346548684
  H           0.99863586249379      3.84991054243664     -0.73980521300237
  H           2.18333044886183      4.05607351582322      0.57110051826906
  H           0.66834930903417      3.15390580652854      0.86392582158111
  Cl          6.19762788676404     -1.46471760476714      3.37096253171446
  Cl          7.05268686793490      0.79796863735319      4.97547345389672
  Cl          4.64644852260121     -0.62696554359460      5.65580432975919
