24
Coordinates from ORCA-job NEB_product E -55.203231158300
  C           3.02429078284553      0.05455423101156      1.21152981884834
  C           2.02518948328373      1.17067650234071      0.85702299413407
  C           2.25183256066065     -1.25268791412135      1.27079775272709
  H           3.73878612985842     -0.03065486070099      0.38304926487629
  O           2.58898235553176      2.04389272629603      0.03712322421040
  C           3.80210172377052      0.63782742918563      2.42959259693866
  C           2.91824404766484      1.12392812518971      3.55100914677004
  C           2.59453341744909      2.39358003112744      3.70332826535246
  O           0.91185286553414      1.24863226692963      1.29182924844773
  C           4.93625513928093     -0.21728683484856      3.00248353019156
  H           4.30194456130557      1.51706294772020      1.99922864437250
  H           2.56664781100709      0.38431065559178      4.25218090786943
  H           2.94289619471733      3.16172261248797      3.03114524596586
  H           1.96026992818122      2.71501244545606      4.50967029015035
  Br          1.16658088668341     -1.34810613131267     -0.37654353276007
  Br          3.38268488630871     -2.83231830797937      1.18139502411649
  Br          1.04454667019890     -1.42800747869132      2.75700402766995
  C           1.77642805275047      3.14584899347429     -0.36141590928817
  H           0.98022189672971      2.79945226973266     -1.02210817795381
  H           2.43526559294327      3.83287314254844     -0.88502282169771
  H           1.32992770880955      3.62054399977755      0.51377119155513
  Cl          6.01623525502993     -0.81063133439485      1.71659563531874
  Cl          5.90761897753916      0.84343195557380      4.07225658973595
  Cl          4.37386307191605     -1.57765747239434      3.98907704244870
