25
Coordinates from ORCA-job P E -31.733900320140
  C          -1.76731929982758      0.17337573679238     -2.22614234149976
  C          -0.42395200132842     -1.96474069166152     -1.09949121466698
  C          -1.89059121552605     -2.08961934439621     -1.36127902525923
  C          -2.53314908436367     -1.08134251491343     -1.92713731960623
  C          -0.98357150602198      0.53782771913174     -0.95793487279204
  C          -0.06024894497266     -0.59290342207928     -0.48124979130926
  H          -2.38062198555671     -3.01356454311986     -1.09545516284976
  H          -3.59011753419505     -1.09444495935582     -2.13383623737945
  N          -2.66655992755884      1.25601979010692     -2.59354179966971
  H          -0.07448722913158     -2.77231892185116     -0.45541281008590
  H          -1.03452969770487     -0.03475966933252     -3.03287855646498
  H           0.11319226900665     -2.03231229531786     -2.05211527765012
  H          -1.70682069352155      0.78493151955978     -0.18057088778961
  H          -0.12849107383853     -0.67488854739866      0.61644509829632
  H          -0.35712392167823      1.41226583825260     -1.14115332571201
  O           1.26249592556117     -0.20661445004375     -0.81990817396491
  C          -3.12116727201470      1.17905278409951     -3.96633476830164
  H          -2.19882553480025      2.14537217006279     -2.44475307546909
  H          -3.68448177254243      0.25684213706728     -4.10487858151706
  H          -2.29878884381388      1.18893154395738     -4.69958817211904
  H          -3.78069127794575      2.02143167710927     -4.16778274304431
  C           2.27248297343701     -0.97695179473227     -0.22381090846286
  H           3.21367044425412     -0.48320660823170     -0.45982091393261
  H           2.29773187211929     -2.00061762218894     -0.61398061439625
  H           2.14721533196448     -1.01781553151667      0.86588147564649
