25
Coordinates from ORCA-job R E -31.664491679200
  C          -1.27578109803908     -0.58432903593796     -2.81242052524152
  C          -0.08450170791601     -3.34791810013703     -2.47930359578843
  C          -1.31869805359753     -2.96661169049903     -2.15115039089099
  C          -1.92685289384734     -1.67455004344911     -2.37044840739224
  C          -0.47955577964941      2.41122489101567     -0.59579368176446
  C          -0.24635985133316      1.16101171622115     -0.22675995490059
  H          -1.96366630333728     -3.68781822408443     -1.66173172067501
  H          -2.98038096612249     -1.61202824426934     -2.14003953835268
  N          -1.82502506936711      0.63578950546344     -3.10471665133036
  H           0.27100603836293     -4.33869187613130     -2.25346870090831
  H          -0.21580285082437     -0.63038529966189     -3.01701535061375
  H           0.60733245492557     -2.69508042699664     -2.98263484748752
  H          -1.40354945936183      2.89616216235845     -0.34605907036163
  H          -0.98064633822153      0.58290736637321      0.32588776305283
  H           0.25697614195465      2.97893219694916     -1.13537808802039
  O           0.90856083795613      0.51887483363666     -0.52793340070642
  C          -3.18500405105686      0.94969592313616     -2.74408008491721
  H          -1.18551965044886      1.41304012785268     -3.02902421799112
  H          -3.35445589845607      0.92275990501974     -1.66060690756608
  H          -3.85579095533432      0.23368793978373     -3.21966024052209
  H          -3.42469218808383      1.94540462061659     -3.11171978329363
  C           1.02934763662537     -0.79461953389477     -0.03037433817804
  H           1.08434509454633     -0.80237489665452      1.06318713556742
  H           1.95775670354228     -1.19057606513106     -0.43916576997817
  H           0.19531820708383     -1.42172775157954     -0.36093963173960
