25
Coordinates from ORCA-job TS E -31.642012835300
  C          -0.61331191527761      0.38089170951013     -1.26163823917103
  C           0.71075809504968     -1.76744527096193      0.09098623881167
  C          -0.62289053406896     -1.80166873472947     -0.21105514646617
  C          -1.27909211730890     -0.76427497658395     -0.87933539675869
  C           0.02325283291708      0.96372102982295      0.83163932763488
  C           0.86886802714385      0.02585719043502      1.36208261049926
  H          -1.23923179437114     -2.56909468369650      0.23982947081628
  H          -2.35705985082232     -0.79383279446644     -0.92724459739338
  N          -1.22596546059209      1.49537951061385     -1.76686076731770
  H           1.12614108695285     -2.57657223399209      0.67328024254148
  H           0.44346172178835      0.34000286718882     -1.47010035599623
  H           1.41310563786011     -1.26127296775590     -0.54757050102096
  H          -0.99361627622813      1.00743740587715      1.16866362786338
  H           0.56265134595422     -0.60916802708185      2.18343149790347
  H           0.44027557973433      1.84568120497238      0.38454634037366
  O           2.22357977914648      0.25905529394877      1.25615594527214
  C          -2.65250582436294      1.66884961889736     -1.80071019983123
  H          -0.68098434926032      2.10411186782348     -2.35128773776657
  H          -3.07200781457494      1.42866465079976     -0.82287728052450
  H          -3.13632560909203      1.03079089265968     -2.55153354907028
  H          -2.88151979799907      2.70829272899093     -2.02884894265677
  C           3.05882843041402     -0.61404963122996      1.96830010554973
  H           4.06465207251803     -0.20148404838306      1.90109606619081
  H           3.05383659620231     -1.62051271273408      1.53665838780835
  H           2.76510013827714     -0.67935988992508      3.02239285270839
