26
Coordinates from ORCA-job NEB E -43.515850904900
  C           0.10172431067369     -0.48896785072974      0.73838253865410
  C          -1.25649285899807     -0.72339881121344      0.19351975440267
  C           0.11619912140595     -0.39823458660462      2.28389509706469
  H           0.77929844967490     -1.29148859661404      0.44965810819782
  C          -1.60941721002695     -1.81311393472845     -0.70905999546756
  C           0.62241064303690      0.85895235838857      0.06374739269072
  C          -0.43541211774733      1.89471815058752      0.07509891133986
  C          -1.67299592381377      1.55208831527380      0.79604701556664
  O          -2.09405826861397      0.31739043293208      0.19135720608650
  C           1.18612516639974      0.71623882810847     -1.36586519320473
  H           1.46173968496709      1.14544446338870      0.70592390268006
  H          -0.57882779742503      2.40957993648506     -0.86486541001402
  H          -2.48472241984380      2.25113932820697      0.60078087720498
  H          -1.55144869188702      1.41608230744389      1.87619119592127
  H           0.58425592359954      0.52025596486468      2.62312746764941
  H           0.67345065177474     -1.23788632576462      2.69167214968263
  H          -0.88819021833092     -0.46394857992921      2.69415668621600
  Cl         -0.27781644472680     -2.39744297697237     -1.84988153195438
  Cl         -1.96453133745974     -3.26799262002941      0.30679710090975
  Cl         -3.01809119381626     -1.42916090900924     -1.66359723662557
  C           2.37014496364652     -0.24357771748947     -1.49550111717504
  H           1.54230592732181      1.70258446222205     -1.67113842165479
  H           0.39143664953285      0.40965483935018     -2.04373834257593
  H           3.23033747481262      0.14094287247502     -0.95179014662164
  H           2.63799842481582     -0.34390418712016     -2.54361958631948
  H           2.13457709102755     -1.23595516352223     -1.13129842265399
