18
Coordinates from ORCA-job NEB_product E -42.706283603140
  C           2.65107216118884     -2.24017443946148      0.04273707620466
  C           1.43982227034620     -1.98380683490981      0.89710023343715
  Br          3.21670175013705     -0.42151642598587     -0.47890202983575
  H           3.48200949111238     -2.63999379467805      0.63072299342565
  C           1.73931820027300     -1.29909980586660      2.26640043302390
  C           2.34270739664491     -3.12969339561550     -1.16747808731009
  C           1.36210481054176     -2.52129452036061     -2.14025956929646
  C           0.25970194712912     -3.12750701115765     -2.53280190143659
  O           0.31126239641347     -2.23484711892821      0.59776353294569
  C           3.57661999124961     -3.41932565930587     -1.87371299918855
  H           1.93690427582200     -4.07614101050143     -0.78463477937452
  H           1.63918587838853     -1.55078535068084     -2.52744954790340
  H          -0.02752563683288     -4.09789696037803     -2.16273455094707
  H          -0.40908713134616     -2.66700349240058     -3.23791729408523
  F           1.06815569998194     -1.92207332156944      3.23775861691450
  F           3.03601630784310     -1.34123778258170      2.59729687170518
  F           1.36375258145759     -0.02052173622779      2.26512331306548
  N           4.54517760964954     -3.63338133939052     -2.43801231134456
