18
Coordinates from ORCA-job NEB_reactant E -42.712208307950
  C           2.00899445016530     -0.50102087747175     -0.25905064481446
  C           1.38093590188141     -1.32147695462211      0.58181802400778
  Br          2.05876878364217     -0.56312845260513     -2.13859217833540
  H           2.56042446686414      0.33903681995080      0.12909146598660
  C           1.47397677581124     -1.02386858247249      2.07502558067965
  C           2.31105366202228     -4.03146411842909     -2.33704399704762
  C           1.87961815058644     -3.80784780366035     -1.09800673144290
  C           0.57302676102501     -3.15528897658743     -0.77344178274629
  O           0.62526334226817     -2.42724900071329      0.44710936348818
  C           3.53285940974064     -4.68332166912306     -2.59798685147537
  H           1.74782633526090     -3.72266408591961     -3.20790571380081
  H           2.46501366945243     -4.11794377037952     -0.24185022392867
  H          -0.17533121198981     -3.92953164380514     -0.56500520858887
  H           0.20765564891432     -2.53485605724771     -1.59711896313386
  F           2.11698336303581     -2.00620698743594      2.71767125474083
  F           2.12936457732313      0.10902972871977      2.34832865271871
  F           0.26499202990999     -0.91671290109106      2.62974412389204
  N           4.52117388408643     -5.22008466710688     -2.81768617019953
