20
Coordinates from ORCA-job NEB E -36.418507923390
  C           0.28016764928251     -0.44954434346705      0.24684843767271
  C           1.59234547278062     -0.50925401752988     -0.39172110437756
  H           0.39171748896698     -0.17965888384011      1.29530033848087
  H          -0.03956347010546     -1.48535257133709      0.23677989367229
  N           2.80006739787816     -0.80129958286176      0.92257541313734
  C          -0.69891958057112      0.46901163479312     -0.57058991596186
  C          -1.78062892779616     -0.35494799961277     -1.19495567304444
  C          -1.42125544702336     -1.25089237170422     -2.10026886160072
  O           2.23304222179802     -0.47325890031377     -1.35132776234856
  O          -1.28675900631350      1.44536447873963      0.21356322863068
  H          -0.08775168457121      0.97249283903172     -1.34299011674654
  H          -2.76060195087146     -0.17533206913899     -0.80912831788115
  H          -0.39730964069129     -1.52834850808213     -2.26703355376538
  H          -2.15707000829279     -2.00342958913869     -2.33229107312759
  O           2.54177082232242     -0.90519493833012      2.10929520450066
  O           3.90782432921952     -0.83778318574905      0.43679402776351
  C          -0.85738017572111      1.89449961844438      1.43761503473975
  H          -0.82020619864868      1.14151462355819      2.24674372521960
  H          -1.57510325075255      2.65409246723196      1.73170072632824
  H           0.13561395911045      2.37732129930665      1.48309034870817
