20
Coordinates from ORCA-job NEB_reactant E -36.465186292190
  C           1.56173925359158      0.51251642258621      0.07802733547197
  C           2.21075438580716      1.14827848134735     -0.89299050774711
  H           2.12907166496095      0.04103980580054      0.85938381661021
  H           0.49214678715076      0.43662310099628      0.12040499938397
  N           3.67968004417129      1.18886607851656     -0.85751075945356
  C          -0.54145554196729      4.19447189878368     -1.72640024316064
  C          -0.22132082703839      2.98443594980977     -1.27744203652779
  C           0.37002118207427      1.94276719532272     -2.17560429327117
  O           1.77587357390022      1.79133417961473     -1.97934363003173
  O          -1.05807773673844      5.23262455878752     -1.04805831019549
  H          -0.42057806646364      4.45781858383409     -2.76925105090767
  H          -0.32539912115049      2.72028415657670     -0.23711855265383
  H           0.27953327902193      2.24435596281721     -3.22054375417707
  H          -0.12063973328248      0.97152626731418     -2.03507070508356
  O           4.23594036410966      1.77868842727809     -1.74898416080152
  O           4.22807207531339      0.62796953191630      0.06470205258320
  C          -1.26512235087363      5.07908226646416      0.33856013940180
  H          -1.66580969153528      6.02792339588438      0.68955481619893
  H          -0.32583098042785      4.86423405892412      0.85663352088577
  H          -1.98369856062374      4.27985967742539      0.54395132347529
