85
Coordinates from ORCA-job A2S E -108.673769151410
  Ru         -0.28590655762896      2.25856091486183      0.07917637844228
  H          -0.52944871161765      0.75290410373632      0.35745457979224
  N           1.09556540920548      1.73693186101832     -1.38111642619201
  C           0.73661878018136      1.66297315473273     -2.67768134615374
  C           2.40741640963772      1.65955370874932     -1.08405700698577
  C           1.66897039507598      1.66810521245390     -3.70354074872943
  C           3.38557208192806      1.66957845423468     -2.06812826750005
  C           3.02031609309575      1.71529705948169     -3.40257339362184
  H           1.33383223459603      1.63158410441298     -4.72899479824853
  H           4.42522933328832      1.63278826893061     -1.78210547834549
  H           3.76353609116945      1.74853608319475     -4.18343705412110
  P          -1.73745717219104      2.32431321086163     -1.68839102190801
  C          -3.35110986600928      1.30705463293773     -1.74631090278720
  C          -2.05707513397923      4.01387429611468     -2.52101904445838
  P           1.53283314869128      2.25002630923051      1.44446868352920
  C           2.37585879302695      3.84889370507781      1.92520718423648
  C           1.72635235062483      1.34049357235312      3.07186280314055
  C          -0.71894072917783      1.47555692971662     -2.98273938042981
  H          -0.93536700090439      0.40406833260967     -2.88177646825697
  H          -0.96445338103696      1.78149406520677     -4.00236425116246
  C           2.78734912190377      1.45804909415616      0.34775961199540
  H           2.73477833416267      0.37795073004743      0.54218761861889
  H           3.80836780906565      1.78784026336540      0.55401274799284
  C          -1.49174374350633      2.76483583714784      1.37345179753669
  O          -2.24412104272647      3.07574607475015      2.19772084106131
  H           0.08527403192582      3.72654976967668     -0.22102212867207
  C          -3.87341067095091      0.92654188329798     -3.13275719769422
  C          -3.07158707254860      0.00924756601125     -0.98417148134204
  C          -4.40633133579480      2.08550770252152     -0.95996919538660
  H          -3.10999926630921      0.43025931417495     -3.72774290668566
  H          -4.70130119153360      0.22756933369634     -3.01039757729325
  H          -4.24823155192390      1.77778319938604     -3.68757073553862
  H          -2.71581246910108      0.23147538882164      0.01968141778229
  H          -3.98644270026942     -0.57804469493417     -0.90775959852551
  H          -2.32483185609681     -0.59957865029116     -1.49271072751735
  H          -3.97018814361832      2.45968280915076     -0.03183334184035
  H          -4.79786016394237      2.92390591796066     -1.53066331287087
  H          -5.24351242777594      1.43564241556944     -0.70641682802574
  C          -0.69795577443521      4.52021978465474     -3.01637431650887
  C          -3.01826908643060      4.02433965310436     -3.70765980382661
  C          -2.56634775704840      4.96334396386255     -1.43572505246747
  H          -0.38220506178726      4.01313917067867     -3.92605947775264
  H          -0.75971421079475      5.58605968131541     -3.23272212272450
  H           0.06517986355272      4.38030315331652     -2.25253001405955
  H          -4.04577654498737      3.85749303417051     -3.39743978536995
  H          -2.97642836372867      5.00670741351094     -4.17908609348885
  H          -2.74229288272015      3.28592145819391     -4.45770370436391
  H          -3.57257918264441      4.70683599653298     -1.11611932649727
  H          -1.91040545451601      4.91697123041544     -0.56708037652652
  H          -2.57869013241086      5.98760467477274     -1.80692051427257
  C           0.63021256676042      0.29426114933410      3.22445253557270
  C           3.10504706817423      0.71909785875706      3.27790167111412
  H           1.56970438801768      2.11360181040919      3.83717093397547
  H           0.75413850772607     -0.49680378886524      2.48876227319334
  H           0.66236087327484     -0.15362120698445      4.21701065178169
  H          -0.34877523079409      0.74836441078613      3.07254353357832
  H           3.90248702474952      1.43593791952560      3.08958943725725
  H           3.19684441950390      0.37688551345260      4.30806789367280
  H           3.24619870350596     -0.14130119174486      2.62772009413329
  C           2.93059831874111      4.58653384227552      0.71297724398815
  C           1.34735912047624      4.71385719536114      2.64744287323778
  H           3.19626877987940      3.59953228411905      2.61190115002412
  H           2.15171634468683      4.69224308865206     -0.04139224124028
  H           3.26195538235930      5.58337608046033      1.00052760362534
  H           3.77521418179186      4.06389440290645      0.26806792076396
  H           0.92514867660017      4.19430833130592      3.50742372168710
  H           1.79612769449529      5.64438576644425      2.99235190150482
  H           0.53041398644984      4.94888216974812      1.96563282285876
  C           1.57630586210854     -2.08410956793341      0.24611852076338
  O           2.72432134404016     -1.78017374817102      0.50939781408686
  C           0.72002950400199     -2.78062943294354      1.23420898220545
  C          -0.67238055253656     -2.72462837160359      1.19263514550876
  C          -1.41835418451576     -3.36392196001638      2.16485285295465
  C          -0.79097921401216     -4.07436849720597      3.17581875971879
  C           0.59270992179699     -4.13295772361106      3.22604103220388
  C           1.34304904727849     -3.48247568710282      2.26693101917534
  C           0.94947204714331     -1.73059892570834     -1.07216311851815
  H          -1.17514034583239     -2.15364231179578      0.42876938213843
  H          -2.49622935153013     -3.30624488252518      2.13563755897474
  H          -1.38052425579446     -4.57735375690192      3.92803041940946
  H           1.08403613387566     -4.68095193410090      4.01645779921768
  H           2.42266776073045     -3.50773223647416      2.29458479533638
  H           0.32118135225029     -2.53389390965035     -1.44673049105568
  H           1.72127318338765     -1.48175553172685     -1.79796151197630
  H           0.33248730022428     -0.84298830742508     -0.90189343684881
