85
Coordinates from ORCA-job A3R E -108.645418874770
  Ru          1.66936309879468      3.61984498387843      0.16956819843988
  H           0.03586202268412      2.73191580153445     -0.10215802808502
  N           2.13302856952613      2.44819142127514     -1.50958412798058
  C           1.80846971631944      2.82446064880798     -2.75686150869723
  C           2.76105914875229      1.23532117446932     -1.31305100309232
  C           2.13239512496090      2.08866662870878     -3.87351360151049
  C           3.12622852440319      0.45487559846136     -2.45390765764787
  C           2.82766384689342      0.87999476147041     -3.70863920535853
  H           1.84884758534746      2.43409998211828     -4.85485922536710
  H           3.64867537557689     -0.47410766484308     -2.28251168868761
  H           3.10890926665006      0.29944108761575     -4.57518906324202
  P           1.30938343595788      5.19574933658255     -1.47630928475040
  C          -0.20253850530263      6.34430654535887     -1.46645282176380
  C           2.83838727273076      6.17578165305049     -2.03990598957453
  P           2.72363633995303      1.88121888275446      1.31398351209537
  C           4.45526027963666      2.28618970121966      1.92794975184364
  C           2.17687382995962      0.92239846680254      2.84959657842196
  C           1.00922798516233      4.09372635667711     -2.92238551583027
  H          -0.05474570817614      3.82490249112914     -2.91540194800391
  H           1.22638343425698      4.57574305598020     -3.87910668850437
  C           2.97322485136151      0.75866189510932     -0.02772508560800
  H           0.87939532616781      0.61364476941570      0.28346216149036
  H           3.53471473539867     -0.15535600053523      0.11397601886269
  C           1.12087185392216      4.57134946563116      1.64221202550910
  O           0.74383611050276      5.17055418418743      2.55870906857272
  H           3.03210678818045      4.23429179233270      0.28182261276460
  C          -0.73103965219646      6.75090941574579     -2.84084983805706
  C          -1.28893238266586      5.54231505576054     -0.74621385115520
  C           0.10884052744772      7.57290191516411     -0.61367007447488
  H          -1.00294815370314      5.88168979387226     -3.43593820864078
  H          -1.62770653857080      7.35663861817375     -2.70814408777938
  H          -0.01359381084037      7.34124855754634     -3.39984766120154
  H          -0.95449699632816      5.25288655403633      0.25230334948344
  H          -2.19439922935922      6.13960919974293     -0.64190949712076
  H          -1.53868004924891      4.64730944672092     -1.31060783860178
  H           0.61538980719254      7.27008592051740      0.30324595718567
  H           0.73130185752319      8.28635628936422     -1.14622609493226
  H          -0.81669643559964      8.07917992545107     -0.34090094051905
  C           3.87560016858399      5.13190967060979     -2.46878537397750
  C           2.60491122862776      7.12886431701538     -3.21122025371039
  C           3.39744525573280      6.95080748162308     -0.84421926428765
  H           3.60208414876008      4.65102926445294     -3.40532768667791
  H           4.84368660514801      5.61107691631216     -2.60893340442022
  H           3.98646749614237      4.36388313700225     -1.70305415801184
  H           1.99995114442294      7.98414634970104     -2.92319365526142
  H           3.56856722774984      7.50886384090730     -3.55002179260571
  H           2.13479053417103      6.62570301298884     -4.05387784987668
  H           2.80705345818934      7.83341273170734     -0.62004239718242
  H           3.41320442046950      6.31171064918909      0.03981878865662
  H           4.41583012126504      7.27374897318063     -1.05521325516261
  C           0.92964779836917      1.55147446794214      3.46297263897427
  C           1.98198174754098     -0.57114607337606      2.61607048231813
  H           3.00068543877607      1.04549552541098      3.56352312060137
  H           0.06674908575634      1.36247602891242      2.83043917198079
  H           0.73458192554116      1.12418108879086      4.44606799367998
  H           1.06049220478016      2.62758371097102      3.57368069956655
  H           2.86780075418973     -1.01672494694309      2.16878094516611
  H           1.80336650810867     -1.06344169324108      3.57160109363217
  H           1.12491520297743     -0.76014464519584      1.97593839951051
  C           5.39137819767499      2.65780442393032      0.78676639479335
  C           4.40063676354460      3.39847337384404      2.96943790833601
  H           4.82612733614975      1.35757265008881      2.38791683533965
  H           5.07963250574898      3.59881565335987      0.33640795080348
  H           6.40888059220239      2.77437176266635      1.15694617577144
  H           5.38648613827593      1.88849795801101      0.01635121181957
  H           3.77488474805815      3.12328290746537      3.81632160123095
  H           5.39981431188202      3.62470307130681      3.33937546446870
  H           3.98107526685921      4.29761502363424      2.51701297684766
  C          -0.63760740651419      1.79292329945739     -0.11865261984564
  O          -0.03221649867513      0.76202664196851      0.60785075028650
  C          -0.88950866969392      1.38413908650262     -1.56323352307947
  C          -1.76781621612979      2.08717907747094     -2.38238717834038
  C          -1.96309590777589      1.71915229838415     -3.70132001480324
  C          -1.28960556466208      0.63186452704452     -4.22976460452763
  C          -0.44175711556407     -0.09711706002133     -3.41726437239867
  C          -0.24837796805955      0.27161377524350     -2.09818539976653
  C          -1.93013393290323      2.13675522268633      0.62349277351280
  H          -2.32669867600570      2.92625807321078     -1.99486490873795
  H          -2.64761222700480      2.28556510362181     -4.31668554158784
  H          -1.43607213425413      0.34971051534400     -5.26155591683468
  H           0.07782018084773     -0.95924111652222     -3.80767263091045
  H           0.40525979240066     -0.32946336913528     -1.48490918014834
  H          -1.69176351630596      2.40774737996297      1.64959119294980
  H          -2.56924282061699      1.25624979635018      0.63466848023013
  H          -2.46320890805279      2.96142240487453      0.16349323319593
