14
Coordinates from ORCA-job NEB_product E -25.413357292150
  C           0.83490044737808      0.56477351994698      0.30900806528764
  C           2.06895134302172      0.21369694793390      1.07809640780299
  I          -0.23072185284849     -1.30687796637667      0.03175747497108
  H           1.15571463950521      0.87181826754881     -0.69054372656445
  I           1.74526219336083     -0.26624082327175      3.15877357942589
  C          -0.04515583450991      1.62985867054740      0.94508685783308
  C           0.75195135097463      2.89044653845691      1.11647959538493
  C           0.98766905581613      3.46053525709754      2.28261535683710
  O           3.16504936342604      0.15642992679938      0.63825431374215
  H          -0.89817844775796      1.81610303543356      0.28609236160050
  H          -0.42873337282228      1.29298900782734      1.91029703040122
  H           1.14386282273887      3.31881393058052      0.20272368235185
  H           0.60732001347730      3.05175880097040      3.20445333822261
  H           1.56340827823986      4.36599488650567      2.36390566270340
