14
Coordinates from ORCA-job NEB_reactant E -25.388746844880
  C           1.56539695827758      0.34434019467250      0.20558681760060
  C           1.83325109657497      0.40488701856909      1.50341064986726
  I           1.59564886528758     -1.41495273182240     -0.91798877596393
  H           1.29059634221781      1.21679864164864     -0.36136363825518
  I           2.32705166353615     -1.26547015610230      2.68446954667917
  C          -0.85593580574292      2.20912800509597      1.65141459134429
  C           0.15655189552665      2.98542613990885      1.31691525211007
  C           1.58697555023383      2.76187039826815      1.72028348720798
  O           1.85030315332765      1.49278158071417      2.28990758003408
  H          -1.86191262435604      2.42825123437067      1.34050579165821
  H          -0.72474685772075      1.32416492781594      2.25202179116110
  H           0.00862544376774      3.87798546856548      0.72478760395041
  H           1.85813061546942      3.47312254301160      2.50860195892642
  H           2.25366370360033      2.93406673528363      0.86314734367952
