35
Coordinates from ORCA-job R E -40.534783206660
  C          -1.49314040993228     -0.96918959091303     -3.23010275795296
  C           0.37698057889690     -3.16651597588395     -2.31111176463918
  C          -0.64752232947455     -2.65187591254447     -1.63078685882505
  C          -1.51052864887732     -1.56442105105987     -2.02506748945683
  C          -1.04385802235228      2.78641551898917     -0.64370488670359
  C          -0.63834726922095      1.73109322276190      0.06452938159433
  H          -0.87256259933541     -3.07146805978759     -0.65654904072704
  H          -2.21199842255030     -1.22982497325019     -1.27592057795833
  N          -2.33748080725393      0.01709011473561     -3.66259942045334
  H           0.95842068958347     -3.98161636604692     -1.91582873170990
  H          -0.80436807958135     -1.30665453771664     -3.99179064382564
  H           0.67159385538338     -2.80465964590034     -3.28136227984521
  H          -2.00563107743605      3.22425736443656     -0.44634386454529
  H          -1.31986382321268      1.31274415454484      0.79553877303134
  H          -0.44939973799670      3.27291029139056     -1.39518847821166
  N           0.57417656023230      1.09867187397949      0.04691451720380
  C          -3.19059619390454      0.73691065244089     -2.74744508890245
  H          -2.01068078436364      0.55317516100666     -4.45081370052217
  H          -2.61906034786925      1.27775245839572     -1.98245012534407
  H          -3.86094008892328      0.03386175422653     -2.25255428282206
  H          -3.79135016102345      1.44764857486993     -3.31121726865700
  C           1.58371974877214      1.49830190722554     -0.91555698100691
  C           2.99254313339515      1.17440909434727     -0.42046290206668
  C           1.34122219595588      0.87767631066926     -2.29613249163000
  C           0.68109316893220     -0.21883523114763      0.62496468149740
  H           1.50462977657389      2.58785049864040     -1.00131692836132
  H           3.17837636561617      0.10374008248939     -0.43494234925746
  H           3.13606699514475      1.54831011066946      0.59040675374998
  H           3.72072088970443      1.65399435613617     -1.06993870143184
  H           1.43243410119443     -0.20480355745050     -2.25158152900578
  H           2.06524018631125      1.25928436793760     -3.01169610923857
  H           0.34053038752851      1.12271984104184     -2.64170753692290
  H          -0.19795751526929     -0.42024755071591      1.23354449932829
  H           1.56049012472379     -0.28362705793410      1.26934991930392
  H           0.74746756062860     -0.99693820058364     -0.14229573568581
