35
Coordinates from ORCA-job TS E -40.511225976210
  C          -1.70223473816312     -0.19687939568502     -1.30619525528708
  C          -0.27239802708656     -2.20517921513717      0.13316558109297
  C          -1.61540218682917     -2.27859664435870     -0.08081088018637
  C          -2.33097746306071     -1.33030621839332     -0.81901784494358
  C          -1.04253121886401      0.66245060477374      0.54547320616512
  C          -0.13080129923104     -0.13015176882333      1.21452664139037
  H          -2.19016518510256     -3.00829367594332      0.47640085402801
  H          -3.40829116799336     -1.36963926692782     -0.78283429542304
  N          -2.37479972699647      0.79322945849602     -2.01139801652228
  H           0.20558046064282     -2.91503693642539      0.78934148993392
  H          -0.67407405623474     -0.28112626487569     -1.62753639064563
  H           0.37708611222521     -1.71210814559031     -0.56527095391968
  H          -2.03736627645030      0.70395529956063      0.95080184049186
  H          -0.47574473767798     -0.71398438278332      2.05279310332381
  H          -0.71380669608897      1.55952998406141      0.04926217321681
  N           1.23517146066742      0.04928987204816      1.20133817364571
  C          -3.74441876627180      1.11540639300306     -1.68038916881218
  H          -1.81142984766571      1.61754849090670     -2.16736605219692
  H          -3.88094485380528      1.36293552513432     -0.62026265319659
  H          -4.38464826784984      0.26806217324439     -1.92358571984167
  H          -4.06052495606101      1.96519110250672     -2.28268389644802
  C           1.90570463278112      0.72858828333926      0.10890754992192
  C           2.51082588134161      2.04898765569868      0.60191462805476
  C           2.97741138170258     -0.12810707973194     -0.57259558818191
  C           2.03772216407563     -0.76505923181443      2.07586047025377
  H           1.14468789371201      0.96043074353339     -0.64036331618859
  H           3.29928804474543      1.86438606921499      1.32728122042957
  H           1.74317420434567      2.65528832413616      1.07616070612027
  H           2.93394837657077      2.60497264215835     -0.23093340392995
  H           3.82732393346223     -0.29620431125068      0.08345574530155
  H           3.33255629798650      0.38247370835354     -1.46470168359775
  H           2.57090655745115     -1.09169552899379     -0.86996473955668
  H           1.49107500322223     -0.95176223046635      2.99909104559895
  H           2.95637038680268     -0.23608888967114      2.32862597033576
  H           2.30172667969758     -1.73250714329781      1.63150945957284
