18
Coordinates from ORCA-job NEB E -41.967396584820
  C          -0.98622508248590      1.07444804374688     -0.11015096772043
  C           0.22142579395021      1.50016802668444     -0.67240711102653
  I          -2.60325841382319      0.87128417907454     -1.45571750944865
  H          -1.30763711974126      1.47545645724089      0.84156788703045
  O           1.15948162413413      2.07057276128775      0.11585863104702
  C          -0.38645166230536     -0.87826945725891      0.26481083824110
  C           0.82354993189248     -1.04973908255577     -0.39740065455598
  C           0.86470708040429     -0.70523165615809     -1.76274252809569
  O           0.63511027778803      1.01433243342536     -1.76828049667059
  C          -0.38164371973760     -0.93191987213458      1.76580033438813
  H          -1.28943292115585     -1.28943575811324     -0.16704434555667
  H           1.73524461442931     -0.93835231663346      0.17662206121885
  H           0.01341900079915     -0.97310718590880     -2.37687254677456
  H           1.81364204099813     -0.75942201621257     -2.27613913544462
  H           0.82315765393210      2.32928132036138      0.98353256641821
  F           0.40574003936674      0.02524519520643      2.30136975145656
  F          -1.60183717367188     -0.73604726869600      2.28683231650350
  F           0.06100803522648     -2.09926380335626      2.25036090898989
