18
Coordinates from ORCA-job NEB_reactant E -42.011467321670
  C           1.21721453896072     -0.35300835045936      0.54057135347275
  C           2.24339482367291     -1.20115891420697      0.53281782647306
  I          -0.53138404523202     -0.82201227575291     -0.51078573385936
  H           1.22618938550141      0.59030190669566      1.05028806487356
  O           3.40929065441092     -0.98390647545929      1.19479719063985
  C           2.25458390213122     -3.87600391447376      2.21573939467288
  C           3.23730328339893     -3.95599045902121      1.33367141985303
  C           3.22797887701764     -3.27871959773039     -0.00039167067149
  O           2.17757428872658     -2.35124699723736     -0.16417109900978
  C           2.30680047801159     -4.53921183848679      3.55313069992657
  H           1.34381903356669     -3.32297683413453      2.04064710236767
  H           4.12690249822837     -4.53231211205492      1.54565241089446
  H           3.07092694718275     -4.02326088386918     -0.78772384560445
  H           4.19877683190249     -2.79497221584375     -0.16489191257277
  H           3.37896633465531     -0.14438448065097      1.66587929547611
  F           2.26360004218665     -3.63857777979486      4.55449917310506
  F           1.26558867380986     -5.36445211900425      3.74960736110695
  F           3.41507345186797     -5.26710665851517      3.74716296885588
