18
Coordinates from ORCA-job NEB_product E -42.028205796220
  C           1.65569117282982     -1.68173077392795      1.27670583090990
  C           2.84475561930086     -0.75658117154995      1.55521035919425
  I           1.02363704989928     -1.35908668479692     -0.75700389816082
  H           0.79920109201714     -1.42122168424146      1.90418990755618
  O           2.84805453069873     -0.17908784754840      2.75670928092211
  C           2.01323596537049     -3.16363144786031      1.46883133652090
  C           3.09790182529354     -3.63712947606142      0.53751695897925
  C           2.97017799230426     -4.70486446572908     -0.22593575663186
  O           3.71349957781920     -0.56364741833817      0.76175025315214
  C           2.45771306315080     -3.40341251686349      2.91205998158888
  H           1.10972954131009     -3.76912870960976      1.32395088352761
  H           3.99668411969555     -3.03752706732771      0.52851447823537
  H           2.07547418821817     -5.30611021170763     -0.22853039075215
  H           3.76073702673908     -5.01697261382398     -0.88433369052548
  H           2.12715100095502     -0.43572874786537      3.34841714087652
  F           3.68733286092304     -2.95345902053249      3.17329283862176
  F           1.64197801161416     -2.77981903628633      3.79588797043139
  F           2.43564536186075     -4.69906110592958      3.22676651555406
