23
Coordinates from ORCA-job NEB E -43.790994938080
  C           0.18570678572288      0.19025365204818      0.37594906345806
  C           0.63859430089932     -1.23828488158384      0.37277553762992
  O           1.18175029031463      1.12490993997339      0.71635226725176
  H          -0.67243251313433      0.29901146479220      1.06078428384402
  N           0.45725725836181     -2.02488667997963      1.49099799970974
  C          -0.22829841592721      0.56198568204077     -1.10799825773812
  C          -0.93233146460483     -0.55218301570792     -1.72988598529385
  C          -0.27817659734483     -1.86162257017414     -1.67988367025043
  O           0.85660271471217     -1.86356741029411     -0.80896193840258
  C          -0.99774004451743      1.87705193060164     -1.12791256926229
  H           0.75368050873761      0.70811455507133     -1.58156721064247
  H          -1.96854453984036     -0.47025112475459     -2.01129083650103
  H           0.13127360907163     -2.16102861839538     -2.65465805387064
  H          -0.99164983704597     -2.64902318804978     -1.37987469457988
  C           1.22531931911515      1.46826054786051      2.08943098660984
  H           2.08744386276228      2.12206003196079      2.20017590967963
  H           1.33782822470936      0.58426713490212      2.71990786875558
  H           0.31441714504893      2.00023627341812      2.38486596864141
  O           0.54928721816689     -3.24480888875584      1.37809636305488
  O           0.22399657376017     -1.44108745437385      2.55701650885808
  F          -2.24267245094514      1.70237000873891     -0.57868325236675
  H          -1.15025898224456      2.23255598852583     -2.15168158219407
  H          -0.48105296577818      2.63566662213528     -0.53395470639082
