23
Coordinates from ORCA-job NEB_reactant E -43.851643585980
  C           1.24721064686285      0.20682470086950     -0.19761877091880
  C           1.12850909783817     -0.78743475542901     -1.10478974473994
  O           1.81369391689225      1.37278797942997     -0.47986928163649
  H           0.86933952104102      0.03390834825567      0.80598667056032
  N           0.47489074956885     -2.00265354587278     -0.70242663463476
  C          -0.07332857909260      1.49143799847929     -4.37848705721750
  C          -0.06679963653861      0.59319342892915     -3.40863080944792
  C           0.71784831814581     -0.67937599586545     -3.44241865765756
  O           1.64939723728848     -0.75792451151983     -2.35336774951974
  C          -0.85005136608354      2.76789989469784     -4.34324758882934
  H           0.49212813110419      1.34566418199799     -5.28792060193270
  H          -0.64287121720914      0.76789512879844     -2.50947400879067
  H           1.34378902149232     -0.73616700901535     -4.33360639033695
  H           0.04602374872357     -1.54705009256549     -3.41868848339299
  C           1.88752840865377      2.31232326616300      0.57539397577073
  H           2.35947973445573      3.19920513873127      0.15816756823715
  H           2.49274594893044      1.92873644668027      1.40107168768191
  H           0.89043952119979      2.56741049797746      0.94394179324444
  O           0.40373035566691     -2.89633935207457     -1.52164121285035
  O           0.01769097178823     -2.05801033647596      0.42622897550010
  F          -1.49073186723289      2.95111897105945     -3.14402498910360
  H          -1.62428775691933      2.77929504093203     -5.12109567746120
  H          -0.18657490657627      3.63065457581710     -4.48178301252410
