23
Coordinates from ORCA-job NEB_product E -43.845663690990
  C           0.93087250728774      1.08554099347377     -1.38952100058592
  C           1.63420975283398     -0.22748886040875     -1.15449536847776
  O           1.82521475984627      2.16199247723095     -1.32873391655604
  H           0.11656119874096      1.19264799552784     -0.65298149876429
  N           0.67808435670465     -1.35472784637047     -0.70563962805821
  C           0.32096265848973      1.05010474719219     -2.81831600780636
  C          -0.60191540842833     -0.12278735378797     -2.99000909594099
  C          -0.35445658578582     -1.14256899496281     -3.79006752549946
  O           2.77974548641489     -0.49852950285624     -1.27737064730777
  C          -0.42501233709867      2.36484009399909     -3.06349565897612
  H           1.15084741716380      1.00053694035165     -3.52903891118312
  H          -1.51461228138373     -0.07337989206957     -2.41150926962876
  H           0.55205407276884     -1.20528420791113     -4.37011090887931
  H          -1.04420287776285     -1.96177439923464     -3.89134176333370
  C           2.25382778276443      2.48910165822277     -0.02419486885850
  H           2.86084097173708      3.38554658033927     -0.12709582995026
  H           2.85987917077350      1.69093723143056      0.41520895141834
  H           1.39893228379775      2.69645067471215      0.62912449977596
  O           0.97907657341997     -2.46376191479548     -1.05358726496896
  O          -0.27698696633154     -1.02804815752122     -0.04282379024036
  F          -1.45732280526833      2.50528483311369     -2.17280771816628
  H          -0.86312809631053      2.37475990758356     -4.06593136721193
  H           0.24142836562620      3.21970699674078     -2.92166141080020
