20
Coordinates from ORCA-job NEB E -44.997806598430
  C          -0.47163975354069      0.41279661836351     -0.75986942107942
  C           0.76746132365690      0.74817576562012     -0.14540966221539
  C          -0.51726567849594     -0.23287579619183     -2.12498269053414
  H          -1.20828719554956      1.21064616424522     -0.69418611716574
  C           2.03077117980011     -0.06176666215118     -0.36350065876720
  C          -1.18148925027954     -0.70337137704661      0.59673247878052
  C          -1.16016174485522      0.11420711732408      1.73977646840478
  C           0.08723105937081      0.55565586861892      2.22110504047669
  O           0.69193989883657      1.45490574264404      0.92776897680002
  Br         -2.91606554058934     -1.29938197354404      0.05220015303815
  H          -0.47994512802979     -1.52634936975485      0.52600198154889
  H          -2.03871452093130      0.70441943384279      1.95907353855927
  H           0.88099676491832     -0.17749169568502      2.30999377530000
  H           0.07984220706924      1.28229633156378      3.02210967012075
  Cl         -0.06272832391195     -1.94668587044311     -2.12031614502570
  Cl         -2.13059519330933     -0.07071767579866     -2.86274484247982
  Cl          0.60955763318093      0.64412985189416     -3.22338254876988
  F           1.89170016555167     -1.31524040957898      0.20778205021819
  H           2.86512768369809      0.42445214745949      0.14965494462737
  H           2.26226441341002     -0.21780421138183     -1.41780699183733
