20
Coordinates from ORCA-job NEB_product E -45.032599955730
  C           1.46414661996252     -0.65443432606103      1.36865407715802
  C           2.83920210998197     -0.42837766528624      2.04597776450461
  C           1.47932247355932     -1.12102540467719     -0.08265566394449
  H           1.00493647221533      0.34503018994085      1.34492604569582
  C           3.99727904412142     -1.32423896578449      1.66452573801757
  C           0.58541337487258     -1.44813847717459      2.36576272466978
  C          -0.81244982488852     -1.71404687252655      1.91199014612293
  C          -1.84745240790873     -1.02601694299580      2.35687621132103
  O           2.92383064985905      0.41670064944262      2.88928581356407
  Br          1.37259718696184     -3.17358035414150      2.90719936636342
  H           0.57696597414987     -0.86118093017372      3.28883538509145
  H          -0.93995022528620     -2.53887883567580      1.22674229414846
  H          -1.73592902178090     -0.21376356299895      3.05658921748990
  H          -2.84837375392744     -1.24524976257302      2.03050259973113
  Cl          1.94622322590187     -2.81055438566278     -0.31436906846724
  Cl         -0.12841663553143     -0.87495112108390     -0.83267563049102
  Cl          2.61033096506102     -0.07605959115501     -1.01135547227908
  F           5.10968309333513     -0.95886468084038      2.36285095610148
  H           4.23830216699049     -1.23881154854802      0.60057848885322
  H           3.78273851235082     -2.36965741202450      1.91455900634894
