22
Coordinates from ORCA-job NEB_reactant E -39.151329199680
  C           2.01371014906354      0.24006893100947     -0.26174232785793
  C           1.31908900040520      0.47260884981486     -1.40164378795456
  N           2.11822820053536      0.98916384496722      0.92333927346178
  H           2.60105905663532     -0.66482884681923     -0.21162881560900
  C           1.32434092732014     -0.60544859428523     -2.45815134024873
  C           2.40176714066610      4.56035529256549     -2.14948463399665
  C           2.18680088616545      3.37990450408685     -1.59690228765700
  C           0.81603357418902      2.84693705435037     -1.31572792666589
  O           0.65285377683949      1.53285656219931     -1.83969772332159
  Br          4.13586283189512      5.22920287109002     -2.47742698871683
  H           1.61782604026488      5.24141811572566     -2.44013551382275
  H           3.01656358654708      2.74188896109885     -1.32470108425124
  H           0.05236121458534      3.44043564917999     -1.82277810150824
  H           0.63113538829631      2.86016634760638     -0.23200929387035
  O           3.09186552638426      0.77490808281844      1.62154869200289
  O           1.22318754322606      1.76768431848785      1.22739687897193
  C           2.50303331482753     -0.39720104620963     -3.41223233586947
  H           0.39194793224711     -0.53123783495908     -3.01825079288948
  H           1.38683758292036     -1.58934875451755     -1.99638257755054
  H           2.44429286812721      0.58250231859537     -3.87994759039199
  H           2.48594081588298     -1.15321292648938     -4.19206406680129
  H           3.44666264297613     -0.47242370031601     -2.87747765545307
