22
Coordinates from ORCA-job NEB_product E -39.151622804310
  C           2.58066141820436      1.42760089689956     -1.22687834189574
  C           1.33336295045174      0.64122944727507     -1.71867229945859
  N           2.80050004510608      0.97677738546381      0.18077853255447
  H           3.45863777824224      1.08431656746307     -1.78324651698453
  C           1.65063792540186     -0.73250710581621     -2.23223076058923
  C           2.40005700163611      2.93171571281815     -1.39030573363332
  C           1.20406478498350      3.54343482752096     -0.75040702127332
  C           0.41027370532411      4.37982099212391     -1.39521566105932
  O           0.23874117931703      1.12406101937238     -1.67417694924664
  Br          4.05537464263010      3.82134911593077     -0.68921459216666
  H           2.41350734024120      3.16101827113148     -2.45952114271013
  H           1.04287865017004      3.30567029728656      0.28968804611077
  H           0.56779556381556      4.63875173178783     -2.43003897587113
  H          -0.44041135387664      4.82674173156715     -0.91320970409754
  O           3.26212424854248     -0.13274083496917      0.29312221838095
  O           2.48804104325322      1.70636184079669      1.07822302243156
  C           2.21850017012939     -0.65490848004686     -3.65341260602306
  H           0.72717329329932     -1.31276648980253     -2.24481824260540
  H           2.37415942748937     -1.21332970195828     -1.57049475021395
  H           1.51715398286634     -0.15141170010901     -4.31454319035204
  H           2.38605736917535     -1.66011040968377     -4.02922075886726
  H           3.16580883359723     -0.12157511505157     -3.67850457242991
