14
Coordinates from ORCA-job NEB E -29.859231922040
  C           0.23053959534104      0.48288838344173     -1.37711504181988
  C          -1.08323869578214      0.30520368338196     -0.95745656300711
  Br          1.06563712256025     -0.98884383796945     -2.27942515349843
  H           0.53456207483475      1.42339281405965     -1.81995558237037
  I          -2.14263362152509      2.16276456079849     -0.55474493892657
  C           1.09199882983898      0.46148995822538      0.41621437619689
  C           0.62099842249029     -0.73264244772878      0.94922049382632
  C          -0.76617696033111     -0.86845326860930      1.17561607985000
  O          -1.47663008087270     -0.72131105831600     -0.34864351425185
  F           2.39262971808428      0.55254178477737      0.11137705450822
  H           0.71392897282000      1.42616938156743      0.74822222038219
  H           1.22131687286967     -1.61677437036470      0.78956918672893
  H          -1.27930285108579     -0.04479255919566      1.66435103529803
  H          -1.12362939924243     -1.84163302406814      1.48277034708363
