14
Coordinates from ORCA-job NEB_product E -29.899858469500
  C           3.08021164294324      0.91674775883786      1.15981367457915
  C           1.58947445102723      0.97123425796494      1.14851990849504
  Br          3.65888951786732     -0.55877154393012      0.00926335815923
  H           3.51621315411689      1.82814330717935      0.74190564926575
  I           0.86398870182995      2.88832769070839      1.87279466062634
  C           3.60794689739409      0.72475736677710      2.59924486545856
  C           3.20194888215377     -0.59871844075045      3.17470748931943
  C           2.13656311061653     -0.75699756566690      3.93568137534560
  O           0.82310717303378      0.13742287149008      0.83128374984434
  F           4.97464109815547      0.83412316421394      2.55812223003789
  H           3.25264663980499      1.55941603797102      3.22092518481038
  H           3.84121038698808     -1.42541755808941      2.90142415415923
  H           1.50097450977898      0.06831987454170      4.21565682886722
  H           1.85538383428970     -1.72458722124751      4.31075687103183
