14
Coordinates from ORCA-job NEB_reactant E -29.886885136710
  C           2.22446063314624      0.63616128391882      0.47217765083342
  C           1.52068004477835      1.06127088954988      1.51206266092150
  Br          3.20005272716274     -0.98828559866645      0.32122177620067
  H           2.28014186188817      1.22171504431338     -0.42816967217061
  I           0.53475112250427      2.93156538069939      1.30788237900092
  C           3.95249586374406      0.93705802960869      3.53405187737942
  C           3.40374884434401     -0.26281525211957      3.50194627980403
  C           1.94212771552308     -0.50686564815077      3.28669854921986
  O           1.24862176774139      0.60330540663240      2.73430961985903
  F           5.26519786436362      1.09961780155124      3.73466715085925
  H           3.44463290201686      1.88393587921591      3.41268129831033
  H           4.01426535594568     -1.14177923092985      3.63945776098255
  H           1.44582140461798     -0.66814315251741      4.25053900190080
  H           1.79150189222355     -1.40234083310567      2.67467366689882
