19
Coordinates from ORCA-job NEB E -49.260372070530
  C           0.70206685115952     -0.60730583822104     -0.81878792977892
  C          -0.58806349518631     -1.13189172306908     -0.53746873836385
  F           1.75061056853371     -1.28718344894466     -0.32075942296082
  H           0.92364219189153     -0.27985975351938     -1.83538995539822
  C          -1.72072343269936     -0.66508988204010     -1.44033714916983
  C           0.71724407237123      0.88496459393346      0.24921522483210
  C           0.42428608146762      0.37324157867060      1.52704609153918
  C          -0.84156468208584     -0.24285611394392      1.72976586509680
  O          -0.87736663176510     -1.46727513422684      0.68075470906606
  N           2.07926016768153      1.43050286780150      0.05265452469757
  H          -0.00576419308326      1.50640297864486     -0.27498561560215
  H           1.26537532301485      0.09596600776663      2.14913851971246
  H          -1.71527893951339      0.32722842587653      1.42198855271312
  H          -0.98374457676014     -0.74435692603952      2.67959279128326
  F          -2.81465780700950     -1.40554885646538     -1.30492270142822
  F          -2.08853300368605      0.61459371862093     -1.16150364573672
  F          -1.37035062548471     -0.67112049834712     -2.73035588449488
  O           2.91022595209750      1.18686647431847      0.88309342512141
  O           2.23333617905617      2.08272152918408     -0.94873866112838
