19
Coordinates from ORCA-job NEB_product E -49.287396004330
  C           3.06629265377754      2.25696199931864     -0.43840820954231
  C           1.73262975035802      1.53745513563378     -0.51986807511444
  F           4.03829158076653      1.34321230377733     -0.14579412525018
  H           3.32483186529644      2.70373953567402     -1.41253614877809
  C           0.55806166873831      2.45633261844472     -0.98742803631200
  C           3.04714978656230      3.34983774793043      0.64747423170745
  C           2.90469551713105      2.78445642737603      2.02704849750476
  C           1.91550603307971      3.10609326112402      2.83877042164297
  O           1.54162645350894      0.39444888515650     -0.25316878217303
  N           4.34672283782900      4.13009433111136      0.53313350928799
  H           2.25661432167732      4.07640556772747      0.42945022561027
  H           3.67436107203178      2.08444564359180      2.31759327576519
  H           1.14253872706284      3.80181004828382      2.55588739163741
  H           1.84063186980226      2.67891519431941      3.82242329351930
  F          -0.38992083327008      1.76766271734994     -1.60389173505745
  F           0.00186331303954      3.07357691574574      0.06744978149509
  F           0.97524612612487      3.42240496793411     -1.81846529571958
  O           4.88272350977046      4.43593332974918      1.55832923304372
  O           4.70463374671319      4.40191336975170     -0.58109945326707
