19
Coordinates from ORCA-job NEB_reactant E -49.298187850460
  C           2.59543161671497      1.16242557897636     -0.44850259177131
  C           1.47911057550977      1.83161785024925     -0.16741361417117
  F           3.57971057600370      0.94581759331045      0.43596466236888
  H           2.80513618113992      0.73849681326300     -1.41684493682953
  C           0.44596047284105      2.03205798652892     -1.26085243404937
  C           3.30997177042194      4.16582347733203      1.07750975143921
  C           3.05502868874859      3.29596413681490      2.04629530817093
  C           1.86470247937366      2.40229235491810      2.12047460443462
  O           1.04099612685825      2.42176179378958      0.96882776729423
  N           4.49670705242167      4.97578175515038      1.11231001006434
  H           2.69014819403963      4.34994137214581      0.21297161759474
  H           3.75583120652041      3.20892002733347      2.86733198643513
  H           1.20987395997880      2.74832178159272      2.92840046052608
  H           2.18317798555399      1.38017207932979      2.35860001622485
  F          -0.75434700517319      1.57739956560382     -0.89677895823966
  F           0.30265469069658      3.32914052449219     -1.55504547331107
  F           0.77262258273254      1.40977307058782     -2.39771923479765
  O           5.22904303398662      4.87907689394066      2.07128001559194
  O           4.67723981163111      5.70501534464074      0.16349104302482
