20
Coordinates from ORCA-job NEB E -52.898099687990
  C           0.75759557529059     -0.02288612762681      0.99996203472679
  C          -0.51429781133029      0.47568735960752      1.34623210475146
  Br          2.18008194527025      1.24602687077443      1.10639740774142
  H           1.07185965039671     -0.96732269160855      1.42771727742603
  C          -1.54999467031367     -0.45356486584648      1.93398409811489
  C           0.49953534506555     -0.36328041438056     -0.84586750522463
  C           0.08751629592887      0.88804027427203     -1.32655208027738
  C          -1.11914411937847      1.44368295950270     -0.79781653336643
  O          -0.92918660998895      1.56771403610407      0.77918357850730
  C           1.71934870260862     -1.01313384307260     -1.45644817505690
  H          -0.27617730183749     -1.11454702631094     -0.70993716430572
  H           0.82973763353069      1.55719770812115     -1.73656924864000
  H          -1.99793767211725      0.80467914979223     -0.85389919364793
  H          -1.33119416374049      2.46525451466187     -1.09283274692692
  Cl         -2.30337404262409     -1.51235088970040      0.66483820550703
  Cl         -0.83927960367673     -1.52198239110615      3.15466063285355
  Cl         -2.84759727232418      0.50069015534152      2.66759701515120
  Cl          1.16063324591606     -1.79987598066134     -2.97238874179363
  Cl          3.01673175654256      0.11080657566864     -1.87737863429097
  Cl          2.38514311678170     -2.29083537353234     -0.41088233124914
