20
Coordinates from ORCA-job NEB_product E -52.940326014070
  C           2.25712507091238     -1.58149354739036     -1.91873146158751
  C           0.92095679549404     -2.25405334597705     -1.68190630247686
  Br          2.12539097027966      0.10992722450282     -0.95323705756427
  H           3.09229559437888     -2.12193931176595     -1.47435712296069
  C           0.92874717775203     -3.40342615875714     -0.65869940608989
  C           2.49007228280838     -1.29583383487016     -3.40700898762675
  C           3.60600110195815     -0.30623003757778     -3.61004498592338
  C           3.47038286977560      0.80215109522395     -4.31140408954156
  O          -0.10549804644210     -1.85596241429437     -2.14667874612844
  C           2.81437008893953     -2.60055449115793     -4.14240963927670
  H           1.56089535768081     -0.89741037726079     -3.83249226341807
  H           4.54245081599588     -0.56000956953294     -3.13508234791909
  H           2.54091636617992      1.06785775619102     -4.78678230450880
  H           4.28622541523775      1.49233762930811     -4.43145295123622
  Cl          2.33244165987660     -4.47330401558707     -0.80969791154997
  Cl          0.98114368467062     -2.59521584783484      0.93366670473241
  Cl         -0.55359374034397     -4.35094646532981     -0.80349303469757
  Cl          1.50527464950430     -3.79634654346006     -3.92441152579551
  Cl          2.99180438313880     -2.27568197046136     -5.87781218523745
  Cl          4.32389750220272     -3.32626577396827     -3.54356438119367
