20
Coordinates from ORCA-job NEB_reactant E -52.929781094760
  C           1.68180199957520     -0.18108486461763     -0.06250977707518
  C           1.50616378181611     -1.08684967552458     -1.02429858735119
  Br          1.69566637112155      1.66185830605710     -0.41064087191095
  H           1.81514892591475     -0.43580728157190      0.97365107601548
  C           1.48158304646111     -2.56882651477593     -0.72174276835503
  C           2.43735885953466     -2.32084196286773     -4.39027248832644
  C           2.99209736148709     -1.16776471860539     -4.05366681937273
  C           2.39324776957076     -0.21639318913133     -3.06328402705892
  O           1.31564171664431     -0.80726555359197     -2.33638835490782
  C           2.99698770374814     -3.30944336967150     -5.34328189818189
  H           1.49631228947490     -2.62525949882231     -3.95388075691069
  H           3.92418980942392     -0.83758856391514     -4.48814287886278
  H           1.98516662116883      0.65194624202514     -3.59525211444458
  H           3.17763585299465      0.13683930882942     -2.38625735639056
  Cl          3.05484212933768     -3.26305428701773     -1.24101341825497
  Cl          1.25053405525939     -2.93394716278429      0.99023592673640
  Cl          0.18266260356680     -3.34810735020914     -1.64571181513584
  Cl          1.81592498243846     -3.60824921704673     -6.65132102785084
  Cl          4.52583787545973     -2.81003059684624     -6.07781096670566
  Cl          3.27119624500195     -4.85503004991211     -4.48011107565583
