21
Coordinates from ORCA-job TS E -32.871309179320
  C          -0.76758946794830      0.38382871093341     -1.44522556999468
  C           0.49066113562524     -1.70378960157574      0.09974220598030
  C          -0.82790504021110     -1.73117050321894     -0.24057331372667
  C          -1.44355991607401     -0.71604165917296     -0.99056968156061
  C          -0.23372174009579      1.10433573190017      0.74129277588124
  C           0.50297679057373      0.14247976968888      1.36220919464992
  H          -1.47882101871273     -2.45158088564306      0.23685878127048
  H          -2.52294703187316     -0.72179157401768     -1.06993079850966
  N          -1.39175848828787      1.40406111028957     -2.11687523163041
  H           0.89086489880652     -2.46057050108438      0.75466464170286
  H           0.30200145591777      0.36318237521532     -1.57489641859149
  H           1.21291827468218     -1.21462517547016     -0.52774756895719
  H          -1.28085756118196      1.21075762888091      0.95153363070396
  H           0.08721443823095     -0.46099599086343      2.15181827544331
  H           0.25232468095005      1.91626280547203      0.23088227910790
  C           1.99677463377157      0.29071533908508      1.42791417398841
  H          -2.37431312923558      1.53005228066247     -1.92931756442338
  H          -0.87648052093678      2.25921639132394     -2.24095136663382
  F           2.62166343961112     -0.85417930300891      1.79943482349019
  F           2.53157485850833      0.64336260915583      0.22766017464323
  H           2.30897930787983      1.06649044144765      2.15207655716611
