23
Coordinates from ORCA-job NEB E -48.689626332080
  C          -0.32703722746926     -0.24975068154976     -1.03821650861610
  C           2.36367412614989     -0.07392031534758      0.41838704966188
  C          -0.62730510845065      0.94199768641706     -1.86087353749042
  H           1.54158307435775     -0.57512027447808     -0.18857923201212
  C           3.67019476222883     -0.17350917501734     -0.32674790752348
  C          -0.84874127712189     -0.12383575654077      0.36757553524496
  C          -2.35095679965888      0.02310356215414      0.60245802171347
  C          -3.16138920787444      1.05582742700289      0.64456915807863
  O           2.12664473775884      0.44986498592907      1.47179305150706
  C          -0.46468723898283     -1.40589044337278      1.19078113973934
  H          -0.37927761246387      0.71761258355985      0.90211833008997
  H          -2.82101000749040     -0.93914003639892      0.76642611979810
  H          -2.92884961472767      2.08332152027278      0.46919742396068
  H          -4.16758967207780      0.83585099740409      0.92173323661668
  Cl         -2.05980737246058     -0.14097978273294     -2.09651640132146
  Cl         -1.02026827721762      2.60808934378290     -1.53633416327575
  Cl          0.45057395399460      0.90595451371791     -3.33606321590968
  F           4.73070097491724      0.28016444196462      0.42670573533494
  H           3.66608392004022      0.42749430052992     -1.24198577554079
  H           3.94108809719260     -1.19777727036147     -0.64874907917394
  F          -1.32120180274419     -2.45413307110867      0.85081229186724
  H          -0.55891164011979     -1.25001751814852      2.26675670486112
  H           0.54648921221990     -1.74520703767842      0.97475202238966
