23
Coordinates from ORCA-job NEB_product E -48.844481490930
  C           1.21403086099874     -1.13534370476722      1.49479571969094
  C           2.59602209625010     -1.34843056629169      2.14263842415413
  C           1.16946247446196     -1.23700770172828     -0.02709258062329
  H           0.97145880940395     -0.08490637658102      1.70144437557108
  C           3.53436566403980     -2.36664006319974      1.52571444315579
  C           0.16849968504609     -1.97045056684047      2.31198157734982
  C          -1.11987508485206     -2.22820140327155      1.58116496848675
  C          -2.27103888278074     -1.68604165921026      1.92958391459244
  O           2.87095535110911     -0.74437850681092      3.14075311393598
  C           0.68720732776762     -3.30154692404404      2.87444095051888
  H          -0.04951552981846     -1.36617006080353      3.19910129524630
  H          -1.06606673271740     -2.95194895904380      0.78140300553265
  H          -2.34566216494838     -0.97326773739155      2.73456731694615
  H          -3.18498888194565     -1.92254339399754      1.41391244045003
  Cl          1.31115570642821     -2.86592804934686     -0.69652257841765
  Cl         -0.34167384188286     -0.51000060252538     -0.64621087552923
  Cl          2.50119133312011     -0.23405592629034     -0.69926997882368
  F           4.59560474962916     -2.57908845948885      2.35972402622483
  H           3.93686438018996     -1.99479364377119      0.57761232605315
  H           3.04534511850878     -3.33137788464906      1.36409141006988
  F           0.99914736348329     -4.20654189400887      1.89355940486862
  H          -0.10147069780537     -3.76140589027490      3.47913607415944
  H           1.58458089631403     -3.16773002566293      3.48607122638698
