22
Coordinates from ORCA-job NEB_product E -42.131549676980
  C           2.67276728139916     -1.14635403697881      0.39773070845236
  C           1.42031676279465     -0.44915496462875      0.87332155415590
  C           2.68221219000431     -1.23309209589900     -1.04353590963997
  H           3.57653751616810     -0.62828036912684      0.73106632837781
  C           1.60970582378326      0.62585268544911      1.97338078696615
  C           2.66105660332698     -2.60634722827192      1.01057492691380
  C           2.46189826261448     -2.48089009809805      2.49685635599362
  C           1.42257252236627     -2.98898107014287      3.13106572297631
  O           0.31584057638120     -0.69502561372714      0.48252770474824
  O           3.78846961816827     -3.33043415562665      0.60953203103980
  H           1.81509250331401     -3.14056739219835      0.56236700769026
  H           3.21775244608677     -1.92080212865332      3.03112400132018
  H           1.29255259243928     -2.86229369796705      4.19175235132697
  H           0.65551772338097     -3.54066791386996      2.61344145169635
  N           2.70377164745117     -1.29209736412727     -2.18312223058502
  F           0.92951838988823      0.26752785493369      3.08242513088385
  F           2.90148308538715      0.77670692355374      2.34550415128935
  H           1.22967398805678      1.60355459685923      1.63506372881387
  C           5.00542219222029     -3.07476369202059      1.27784645203364
  H           5.75661958354613     -3.64074427162878      0.73072306706540
  H           4.97538290934101     -3.42390331124232      2.31449069013584
  H           5.27863578188153     -2.01484265658810      1.25886398834530
