22
Coordinates from ORCA-job NEB_reactant E -42.145533373320
  C           1.52781975872522     -0.28648007013213      0.01379167002897
  C           1.47380152010105     -0.10631802342630      1.34736907260545
  C           1.43597409760755     -1.49259931440868     -0.69345309636115
  H           1.62891387372318      0.58160462611233     -0.62242853666528
  C           1.56184864737571      1.31087907812952      1.89618402738961
  C           3.40576493162471     -3.50766505830955      1.05737506297063
  C           2.91452584993882     -2.77530475788500      2.05179889448402
  C           1.47295281812008     -2.38058819811933      2.14549729129517
  O           1.34246351209099     -0.97217353027306      2.34715341443206
  O           4.66974110411177     -3.93162738373779      0.88403158525642
  H           2.78078253768140     -3.86258931551049      0.24846161800203
  H           3.52970727072427     -2.40991938739089      2.85963030226645
  H           1.01633656142141     -2.80372744222445      3.04643761825098
  H           0.90924112950293     -2.70463113836617      1.26791346885412
  N           1.35322568857762     -2.43627392136310     -1.34318811646372
  F           0.52182589860756      1.57941853754017      2.71434418193122
  F           2.68506092458372      1.45361026102582      2.64013546571433
  H           1.58058078291047      2.07698361930040      1.10622021315460
  C           5.63055394301151     -3.55731654057945      1.84618592639473
  H           6.57079149802295     -3.99567997797316      1.51745901063531
  H           5.37081727871388     -3.94607858254344      2.83540363569325
  H           5.73317037282318     -2.46942347986524      1.90127729013081
