22
Coordinates from ORCA-job NEB E -36.964796871110
  C           0.38689907129600     -0.38093917319568      0.89113386630888
  C          -0.92471433995995     -0.76750931321619      0.62425604303432
  C           0.58954085530097      0.82574376977564      1.76472617409043
  H           1.13145268090096     -1.15718420297059      1.02055575009785
  C          -1.21486651716248     -2.18699161944090      0.16451774069657
  C           0.82854068645920      0.28048235358244     -1.03167935781003
  C          -0.14637922608678      1.28979843304186     -1.09910930994070
  C          -1.49167182073198      0.96355620915699     -1.15852966960527
  O          -1.83872922061565      0.10150903729126      0.43737635781396
  N           2.16366120146039      0.58511874939874     -1.08065979163915
  H           0.60155811487126     -0.67297314465429     -1.49584244297891
  H           0.14211542956945      2.28087672963363     -0.77805909118191
  H          -1.80183983194355      0.11101685074066     -1.74556951377886
  H          -2.22440276643965      1.75163766590098     -1.09467636289512
  F           1.82196814380711      1.41436386247573      1.57566307504835
  H           0.56086065409548      0.53057713181838      2.82161608629727
  H          -0.17020968719373      1.58677435680561      1.57255444443093
  F          -0.09469542876109     -2.97872567448298      0.17248493171422
  H          -1.60566573649305     -2.18564914962493     -0.86078010567423
  H          -1.95092685608380     -2.65562814791741      0.82658650140539
  H           2.43570971116668      1.43996292590810     -0.61739286778842
  H           2.80179488254421     -0.17581765002703     -0.90917245764556
