24
Coordinates from ORCA-job NEB E -32.757105255190
  C           0.36899707525536      0.20017493790558     -1.16632601898874
  C          -0.38275683689484      0.65771122846677     -0.07403789482307
  C          -0.33129443053269     -0.25237424034558     -2.42326297712029
  H           1.29235333212659      0.73717110573808     -1.36182056667183
  C           0.27727858622156      1.56215909949675      0.94071929199830
  C           0.96073570132888     -1.54958486158718     -0.37607537046186
  C           0.19213799523272     -1.80224929277420      0.77292159296617
  C          -1.20121660983013     -1.65327735598431      0.63288660154837
  O          -1.42707471038446     -0.00090570954974      0.30397542078786
  C           2.36100860209170     -1.38396110568253     -0.21742209613133
  H           0.68664836232030     -2.08475361637283     -1.27748509579853
  H           0.63188844396022     -1.57765757809100      1.73697060075465
  H          -1.81517466175336     -1.76153679508469      1.51710036474159
  H          -1.65748612182135     -2.07495369418623     -0.25612916965686
  H          -1.23181155770840     -0.81680992290654     -2.19579284264830
  H           0.32339527803160     -0.84370224757624     -3.06053917389742
  H          -0.62637575033295      0.63358725808250     -2.98703155906238
  C          -0.74302268829515      2.37365219801293      1.73156472710287
  H           0.99286964589344      2.21916197169997      0.44577848198715
  H           0.83545387418986      0.91427046882488      1.63067223542566
  H          -1.25124459878739      3.07937802206784      1.07874490852894
  H          -0.25422704473665      2.92640094387661      2.52970696253393
  H          -1.48807023965132      1.71189028593221      2.16587081900445
  N           3.48698835407646     -1.21379109996304     -0.09098924211932
