24
Coordinates from ORCA-job NEB_reactant E -32.793824602320
  C           1.67840981557907     -0.40631930944934      0.59660582932277
  C           1.63261756894966     -0.45959795449727      1.92529468230752
  C           1.75816116129051     -1.48739646086956     -0.44089745955976
  H           1.65823332320362      0.59173584980632      0.18159832491464
  C           1.58008091499218      0.80031395743140      2.75614870661872
  C           2.34868276004113     -4.82947126269604      1.30775207080176
  C           2.43881411113724     -3.63798598723820      1.89915127744046
  C           1.25404762769907     -2.82433250823997      2.32405325685751
  O           1.59747225915941     -1.53840266133701      2.77542509130244
  C           3.48297734374421     -5.57972013196993      0.94696559897765
  H           1.39322224147721     -5.27876536448013      1.06749450525063
  H           3.40478573875215     -3.21081874885772      2.13497517285478
  H           0.79618732279142     -3.31286355055864      3.19686973010466
  H           0.49702536720754     -2.77905065345863      1.53245472327018
  H           2.28208726381733     -2.37065545087889     -0.08542555203072
  H           2.29504424599258     -1.10640837641129     -1.30762532341752
  H           0.76358135381761     -1.78470539739668     -0.78027886288427
  C           0.13830803149877      1.14653533332900      3.12777675753598
  H           2.03059661177154      1.62674254880259      2.20753503637085
  H           2.15451097564153      0.62909635602235      3.66771507846202
  H          -0.45099051286336      1.32623690465243      2.23123914901585
  H           0.11098787441972      2.03994228387522      3.74678043906105
  H          -0.31360570574277      0.32737781360193      3.68172296295038
  N           4.40036230562260     -6.19788722918193      0.64416880447242
