24
Coordinates from ORCA-job NEB_product E -32.812719237530
  C           2.14777051149534     -1.42861026498748      0.76128259614206
  C           1.42238003338329     -0.66388774639232      1.86977668525957
  C           1.30315196929846     -1.43978295526082     -0.51065577230053
  H           3.11402996112644     -0.95192757821289      0.56561256164452
  C           2.28151356400906      0.32313750109553      2.62138414118851
  C           2.42356788543434     -2.88532759785989      1.22713423501584
  C           1.16555385766939     -3.67771679560237      1.46833632815397
  C           0.93491095181531     -4.85296396077737      0.91600595778775
  O           0.25805287022506     -0.85025066587047      2.11381291375818
  C           3.19714474197063     -2.86764915328593      2.44731129788484
  H           3.02825146267690     -3.38412305197147      0.45843997116828
  H           0.45033634589546     -3.22103429513610      2.13689901524002
  H           0.02854367846573     -5.39917997489774      1.11124454420515
  H           1.63952262624331     -5.32285008941479      0.24784756618534
  H           0.31643913146535     -1.84313413654651     -0.29655544297286
  H           1.77392939339353     -2.04843304777660     -1.27967148395679
  H           1.18768068931403     -0.42703632535232     -0.89055419636509
  C           1.52452186256155      1.00642977686809      3.75160402608758
  H           2.64806807734577      1.06157596490629      1.90219966924618
  H           3.15202214677552     -0.21237721958439      3.01047483933992
  H           0.64866445226283      1.51921795979250      3.36178945240153
  H           2.16229327025479      1.72796934915575      4.25502394011990
  H           1.19003311941803      0.26819811569895      4.47568909503905
  N           3.80901739749988     -2.84934380858761      3.41316805972706
