26
Coordinates from ORCA-job NEB_product E -52.017707652950
  C           1.78377167851614      0.45291480233348     -2.05496199604178
  C           1.05176295602094     -0.80264055301426     -1.65135510651149
  C           1.70276060305530      1.47475342874675     -0.90784626453763
  H           2.84864721202826      0.25127324013207     -2.18803723795060
  C           1.95245984503673     -2.04041858836455     -1.41693607878955
  C           1.21458866601607      1.04978493506548     -3.38252743415838
  C          -0.29010810922258      1.00023102973668     -3.40918183950791
  C          -1.02936534346724      0.20511462785885     -4.16052325928212
  O          -0.12513241179993     -0.88073856318892     -1.47077970431246
  C           1.86084370422773      0.39322704279953     -4.60748248940496
  H           1.50825809773299      2.10686016613617     -3.38262028237434
  H          -0.77646481295805      1.69211843976117     -2.73684062848177
  H          -0.61352609436668     -0.51617534182552     -4.84283664005474
  H          -2.10348759965359      0.24626004733756     -4.11676914119738
  F           2.46268266633763      2.55385547350934     -1.21533963601366
  F           0.45917754727896      1.94090717554331     -0.69600969182666
  H           2.07709788887397      1.06633070537003      0.04426707904773
  Cl          3.00543139602697     -2.37472472873144     -2.79696323821123
  Cl          2.96427856501253     -1.64803917781527      0.00383670122985
  Cl          0.96967788569252     -3.46334843166540     -1.06484121072901
  C           3.33704814615313      0.73863464720853     -4.77106624370899
  H           1.32542157788085      0.75537627905725     -5.48678231170156
  H           1.73975676611065     -0.68924201659495     -4.56240520449300
  H           3.48240248637162      1.81626019086492     -4.74694010870030
  H           3.69687962780790      0.36705103518395     -5.72715833506044
  H           3.95073705528716      0.29037413455523     -3.99369969722762
