26
Coordinates from ORCA-job NEB_reactant E -52.006815404160
  C           2.02611963790365     -0.02186680845315     -0.32876278129250
  C           1.40167825335974     -0.60136790711791     -1.36765379085765
  C           2.12729196041179      1.46992103150418     -0.22515753699282
  H           2.49681987036315     -0.59297711960986      0.44772911383380
  C           1.27258103433800     -2.10918614793061     -1.46204689447904
  C           0.59794217155478      1.27077907182592     -5.12374866986936
  C          -0.29242029224886      0.98029316558366     -4.18677931053554
  C          -0.15342375048264     -0.14651899876694     -3.20045015890391
  O           0.95973623942205      0.17095784821725     -2.35801182571055
  C           1.88972852780583      0.56278209304100     -5.36893316098942
  H           0.41525066319100      2.12272737145508     -5.76546110092202
  H          -1.17592919020289      1.59001083637829     -4.07388457213103
  H           0.00558452840067     -1.09662799830539     -3.72126859177974
  H          -1.05629548850615     -0.22082448951123     -2.58623390972121
  F           2.88885286582989      1.99808610204951     -1.21930979865952
  F           0.91358720470200      2.06718402587209     -0.33283956595681
  H           2.56917743738146      1.79081889903417      0.73056509550643
  Cl          1.92639212674294     -2.67299160947220     -3.02527046923555
  Cl          2.16472743419537     -2.96321625995768     -0.19290225996957
  Cl         -0.43815908967559     -2.60710562883202     -1.31754498148697
  C           3.05861294789120      1.40503707765499     -4.85327147112659
  H           2.01036236254491      0.40114065285691     -6.44357835409693
  H           1.90184489054877     -0.40666922463591     -4.87266500334494
  H           3.08044660537913      2.37189497357286     -5.35077056130404
  H           4.00140158922903      0.89702493891224     -5.04155113996886
  H           2.95688945992076      1.56989410463479     -3.78429830000564
