22
Coordinates from ORCA-job P E -35.426556715310
  C          -1.04161979592346      0.73581237362808     -1.95973714785622
  C          -0.67975963361146     -1.79187704375631     -0.43589995407639
  C          -1.01246953716118     -1.73796018354302     -1.89323278804996
  C          -1.16487208779811     -0.61663963831088     -2.57883009777662
  C          -1.12860041664324      0.67811751739416     -0.44080079450918
  C          -0.21193470979427     -0.43244701951183      0.08271668952312
  H          -1.11697191977133     -2.69215298133610     -2.38876396109897
  H          -1.38332636011426     -0.63397606697607     -3.63616683953257
  Cl         -2.36306521984077      1.79313288596860     -2.57815551726662
  H          -1.56128227453666     -2.12009637145421      0.12255698750131
  H          -0.11770393032269      1.22450099518022     -2.28702356994673
  H           0.10746128524650     -2.53251049888626     -0.27942142957115
  H          -2.15638909864563      0.45057939770771     -0.15176867218626
  H          -0.22982233556893     -0.41793592357616      1.17789520291612
  H          -0.84990320509058      1.63954888996201     -0.00915835658015
  C           1.23056192426389     -0.17887143938712     -0.32933172899678
  O           1.95298761889512     -0.97403518078100     -0.86698398782698
  O           1.61779389441934      1.05679992573713      0.00970751701326
  C           2.95740577249894      1.40439901270983     -0.31544063444862
  H           3.11474308697489      2.40625717700508      0.07514916446769
  H           3.10136169450617      1.38705821907304     -1.39760983491341
  H           3.65335524801773      0.69829595315309      0.14135975321511
