22
Coordinates from ORCA-job TS E -35.320300496820
  C          -1.48201182946742      0.59568048666638     -1.55186277796670
  C           0.00006955834371     -1.66916588500460     -0.59728787070531
  C          -1.28276820688377     -1.75983349263216     -1.01809768856422
  C          -2.00729061772721     -0.65913910669642     -1.52989891485817
  C          -1.20813939645332      0.89089462370599      0.65785762829751
  C          -0.45423393571849     -0.12235774500453      1.16475757514488
  H          -1.84415752579625     -2.66164009357065     -0.81752138758079
  H          -3.06379975471355     -0.78845511109444     -1.71575451689311
  Cl         -2.44652247600835      1.93364623003981     -2.05381665647837
  H           0.47700581077752     -2.49813668349809     -0.10220100979637
  H          -0.42565851627321      0.79353639834971     -1.62075342716286
  H           0.65594139179731     -0.89708608419512     -0.95479712922063
  H          -2.27347692983052      0.89741568827958      0.81120801312618
  H          -0.90954365094967     -0.94936276188035      1.68662479400250
  H          -0.74702404818666      1.83397704757643      0.42198959398863
  C           0.99937573276654     -0.01295939909087      1.34983762794424
  O           1.65276827951166     -0.71473132070762      2.08264602298285
  O           1.54369678801043      0.97841702438021      0.61171827514485
  C           2.94136146371863      1.16335047793031      0.76801019078350
  H           3.21447629114311      1.98936982534609      0.11596401686513
  H           3.48000461018453      0.25624219551872      0.48461767703454
  H           3.17992696175497      1.40033768558159      1.80675996391172
