18
Coordinates from ORCA-job NEB E -30.741477411480
  C           0.22332274062686      0.69710765494534      0.63658278193909
  C          -0.10762649182199     -0.65808521773019      1.16830800845270
  O          -1.01148526815708      1.36667265309730      0.45691170815668
  H           0.83417348783376      1.24648863399837      1.37028745253597
  N           0.11967342221883     -0.98726394734415      2.46905249742795
  C           1.00768934697894      0.52079090302210     -0.69278464526863
  C           0.46339028946548     -0.68870851398410     -1.41840352414279
  C          -0.83585559323325     -1.24924404774516     -0.93129881890374
  O          -0.84033413000350     -1.50565058416090      0.46578957672127
  C           0.84462748691771      1.69086208198959     -1.52953390827045
  H           2.07008038485407      0.40129013211917     -0.44028034489522
  H           0.47619678828865     -0.58897469290374     -2.49973522889523
  H          -1.03502690644650     -2.21442875400311     -1.40329296397203
  H          -1.69170443579012     -0.58574645385887     -1.13708160947938
  H          -0.92138236356119      2.02795356734406     -0.24436824842988
  H          -0.36627867764872     -1.80987715056207      2.79496687234541
  H           0.21732001942479     -0.23856315271409      3.13671434814163
  N           0.55321990005325      2.57537688849045     -2.20183395346334
