18
Coordinates from ORCA-job NEB_product E -30.829254146890
  C           2.43856886329195     -0.88718360243351     -2.03247048688471
  C           1.44824493031025     -1.94418537774511     -1.49603483808019
  O           2.63261948947344      0.16708310896073     -1.12641003414396
  H           3.41487907870299     -1.38264215729439     -2.12175231102815
  N           1.30143397183354     -1.89333608204092     -0.16143835523135
  C           1.96913024778411     -0.43522040338217     -3.44048085688150
  C           0.79904030848810      0.51289645089398     -3.34332650320274
  C          -0.45617505384950      0.11262951691914     -3.41531352915453
  O           0.87802089244454     -2.72947352971761     -2.21833039252689
  C           3.05800945039035      0.18932266225340     -4.15160785043415
  H           1.66852126973647     -1.34676854138079     -3.97119942095469
  H           1.04892846939345      1.55790203265197     -3.20399480305780
  H          -0.70928493716367     -0.92434312535943     -3.56178255086391
  H          -1.27637574292772      0.80446489794120     -3.32530462794224
  H           1.85944703973785      0.74543615914212     -1.15269643467139
  H           1.86631963859931     -1.25652835744959      0.37690817551983
  H           0.73475243474984     -2.58067781261572      0.30565002467336
  N           3.91601964900472      0.70592416065669     -4.70211520513501
