18
Coordinates from ORCA-job NEB_reactant E -30.793854419170
  C           1.85612181957384      0.25587328079144     -0.69716329247353
  C           1.31495899681850     -0.94641611187525     -0.91374871228414
  O           3.08437084619177      0.62184265196754     -1.17009338604209
  H           1.38614039405614      1.01467625638924     -0.09661848723284
  N           0.10755830049779     -1.38305712619889     -0.35812681153080
  C           1.01303026545654      0.05679524448675     -4.14783252022874
  C           1.88535217533046     -0.90507628629108     -3.84743192806581
  C           1.53857294165230     -2.08082892628210     -2.98796469430780
  O           2.01368926518517     -1.88737013710456     -1.65307578648169
  C           1.36525663009085      1.19265478572675     -4.90349986078026
  H          -0.02458776475971      0.00788872829026     -3.84054430303604
  H           2.91847858529261     -0.81859388771219     -4.15501921815534
  H           2.04768155007427     -2.98259642559090     -3.33617949090468
  H           0.45408226507009     -2.25428887866668     -2.99080771557439
  H           3.47894427300457     -0.15537561887024     -1.58940261705983
  H          -0.35251041790020     -2.11095482490362     -0.88478826481725
  H          -0.51550496505136     -0.63987586564560     -0.08454860353028
  N           1.63696483941636      2.11720314148914     -5.52415430749448
