27
Coordinates from ORCA-job P E -30.845608541230
  C          -1.20787125401031      0.28195797767189     -2.47933296206466
  C           0.09862466879452     -1.68087750655124     -1.09015021457568
  C          -1.14629262464096     -2.05200900992949     -1.82826525345334
  C          -1.78196532777251     -1.10636626767549     -2.50095802863661
  C          -0.88181500134415      0.67886759743965     -1.02316660357497
  C          -0.13634348537586     -0.41883703699045     -0.23857769465272
  H          -1.49620849347498     -3.07259959992013     -1.78831476079965
  H          -2.68686221599694     -1.29507899165794     -3.05611073769976
  N          -1.99886445818278      1.32471766493160     -3.12072064036885
  H           0.43743473453426     -2.49661879664420     -0.45062008990647
  H          -0.24922371440911      0.25652789730344     -3.01679209648721
  H           0.89448891907087     -1.46803804518316     -1.81199012380137
  H          -1.81350087233222      0.91728235346303     -0.51141772653440
  H          -0.75739018892350     -0.71871380813072      0.61214789482424
  H          -0.28874529488336      1.59297517039714     -1.05428060600356
  C           1.19379788758813      0.09814316371091      0.30458032471431
  C          -1.84803419017609      1.34339670039964     -4.55901985163406
  C          -3.39861791806249      1.35489741856536     -2.75078003160810
  H          -0.79312149415768      1.44174889065129     -4.81260576312200
  H          -2.37974143370495      2.20857180238028     -4.95482375052403
  H          -2.24373893482401      0.44042577159229     -5.05091354584769
  H          -3.50546359725970      1.21689404409984     -1.67818485190226
  H          -4.00234476451597      0.58959060306927     -3.26159312968712
  H          -3.80348993956860      2.33333588982638     -3.01398763694991
  H           1.83997724703838      0.41532577190812     -0.51141405606891
  H           1.70639306987243     -0.68107089095522      0.86530612015659
  H           1.03295867671760      0.94602123622792      0.96660581620819
