27
Coordinates from ORCA-job R E -30.771061018260
  C          -1.35452633720174     -0.59357852070709     -2.98460974899049
  C           0.19854608593420     -3.06867186812828     -2.19455799878639
  C          -1.02245855460519     -2.72570093436883     -1.78321797292164
  C          -1.79490957075539     -1.56999412748555     -2.16982116047556
  C          -0.75173847183266      2.39892036193551     -0.41052596462724
  C          -0.60393411225839      1.12570194555642     -0.09520188136028
  H          -1.51544393242885     -3.37195926940150     -1.06605163437952
  H          -2.78581296913246     -1.51428241944928     -1.74464416173605
  N          -2.05611526033972      0.48476431167241     -3.44302329093955
  H           0.68341704251845     -3.95573497285958     -1.82566179566492
  H          -0.35270260100670     -0.65084983096636     -3.38635254707579
  H           0.75651436477560     -2.49128185335792     -2.91187721463534
  H          -1.70361431151612      2.90038134734815     -0.35089945104635
  H          -1.45559937837443      0.54236385899356      0.23075772800022
  H           0.08283167132587      3.00221130298533     -0.73149425385986
  C           0.68649979115414      0.38245934082441     -0.14386931901392
  C          -1.32504799318427      1.63376693907320     -3.91544218622710
  C          -3.36612063369317      0.76633581184322     -2.91277437432758
  H          -1.08725508553126      2.32796660847882     -3.09954818075941
  H          -1.92076124692594      2.16276298987237     -4.66179983466691
  H          -0.39437334467593      1.31273079408645     -4.37927146103652
  H          -3.32723236842969      1.10614074141558     -1.87077942804205
  H          -3.98234569389530     -0.12986808208936     -2.96894238276125
  H          -3.83252243798809      1.54411736335926     -3.51629858568784
  H           1.48429867754241      1.00628042118132     -0.53985785852231
  H           0.58086971468730     -0.50751170645100     -0.76256834858221
  H           0.96253695583736      0.05292944663875      0.85784330812588
