30
Coordinates from ORCA-job R E -39.950160854290
  C          -0.64883320062522     -0.31796178111274     -2.66899412258183
  C          -0.31249352323077     -3.21520819294928     -1.86233763386877
  C          -1.41125877405670     -2.47594476571967     -1.72951124719550
  C          -1.57975656941875     -1.08885084816116     -2.09860528110356
  C          -1.45588804474880      1.58387207686631      0.57698347687576
  C          -0.61709397241110      0.55813531179459      0.64560904668616
  H          -2.29230577172471     -2.93429849043872     -1.29744634094917
  H          -2.54037741007891     -0.64185364849518     -1.88880658687287
  O          -0.89333366239232      0.97961423067610     -2.97182052886374
  H          -0.28993323201435     -4.24613305375302     -1.55354509029815
  H           0.34097343565063     -0.68599681391820     -2.91244755675134
  H           0.60037764743934     -2.82593327989825     -2.27839017269443
  H          -2.44997659132529      1.52274642075796      0.98540961181377
  H          -0.94699728290435     -0.36406730115210      1.10815568925741
  H          -1.19969526466358      2.51462788616954      0.10106115364048
  C           0.73955685523575      0.51673746755376      0.11383640651356
  C           0.15225905160855      1.66479419922363     -3.61901293488672
  H          -0.17869412111537      2.69564084433405     -3.73218158203382
  H           0.35186194832931      1.23896744557419     -4.60856977494869
  H           1.07138394753250      1.63901313361254     -3.02446966805231
  C           1.42802831833224      1.66075666716240     -0.29039682899671
  C           2.70565227504370      1.56929285491121     -0.81038702802430
  C           3.32405557478608      0.33571579463502     -0.93705676763199
  C           2.65774226011266     -0.80773686573819     -0.52755064190365
  C           1.38346680282298     -0.71637159581327     -0.00171257555850
  H           0.96369001930598      2.63004695661757     -0.19202848354271
  H           3.22579520604940      2.46571183517704     -1.11861179473951
  H           4.32113707396624      0.26814707434448     -1.34745344444936
  H           3.13601652706143     -1.77259451426445     -0.61630529981490
  H           0.86524047743346     -1.61216904799616      0.30902600097541
