30
Coordinates from ORCA-job TS E -39.934562987840
  C          -1.80293154847416      0.24056125194234     -1.51708208617824
  C          -0.46903185269871     -2.01622881560526     -0.33564154873746
  C          -1.79042086542632     -2.02512695925996     -0.64199667221010
  C          -2.44563677580606     -0.93946565410746     -1.25060211695132
  C          -1.29275830319664      0.76649212885470      0.58281290217085
  C          -0.52548519833881     -0.20667610826175      1.15997934126804
  H          -2.41476174985303     -2.82077567556832     -0.25819977811519
  H          -3.52335589752063     -0.94611383113947     -1.31395387475123
  O          -2.52591971672768      1.28807880836586     -1.99595482735656
  H          -0.03363382761197     -2.82356188729202      0.22982015823230
  H          -0.74037580943298      0.26575241930369     -1.72414624511333
  H           0.23364910444875     -1.40286710079365     -0.86763314245915
  H          -2.33619062715610      0.84463915213526      0.83229964303553
  H          -1.00403864751429     -0.90662597720483      1.82944708812258
  H          -0.83317537010154      1.66773425829225      0.21526665103623
  C           0.93065430334932     -0.16117982688430      1.24257453047862
  C          -1.79365857610481      2.40117961146929     -2.44434770548053
  H          -2.50679063247922      3.06622516721993     -2.92821617417551
  H          -1.02167165548661      2.11050451775400     -3.16495514465950
  H          -1.32105137640417      2.93191048511194     -1.61006072466617
  C           1.71254755226894      0.63599109759968      0.40463387292958
  C           3.08839071774675      0.65757601401289      0.52543295373605
  C           3.71951134543988     -0.11482261780766      1.48627732638923
  C           2.95932969153406     -0.91374661191057      2.32441632309735
  C           1.58434158174670     -0.93933916904650      2.20024281368965
  H           1.24301132076006      1.24226734485713     -0.35632831167587
  H           3.67473800393888      1.28043380175822     -0.13542780998124
  H           4.79528333534737     -0.09546168089112      1.57920863777861
  H           3.44293604535401     -1.52131821994206      3.07590888348913
  H           0.99649542839904     -1.56603592296225      2.85622503705767
