23
Coordinates from ORCA-job NEB E -37.280779323190
  C          -0.01723589943022      0.35503632679163      1.14990527289405
  C           0.18706246967093     -1.00300501503288      1.35497671657519
  O           0.93894550716319      1.31356569598957      0.97684793397577
  H          -0.89825678707186      0.77681878490359      1.61933877187679
  O          -0.89674517361854     -1.62951204781961      1.92231441833482
  C          -0.71307528351372      0.06785373743530     -0.94060903493572
  C          -0.60300781345606     -1.29409985593867     -1.16643374852386
  C           0.63633430810782     -1.91685129981469     -1.02048942882981
  O           1.04776984558325     -1.72705472705027      0.76506350334976
  O          -1.93768422592655      0.63702300063017     -0.94248201952049
  H           0.11555858345694      0.71848376410017     -1.20729608034900
  H          -1.50629059023642     -1.87815657174466     -1.06017591339840
  H           1.52323641041179     -1.39423759521445     -1.34680830909065
  H           0.69431516069753     -2.98991181930187     -1.11379883071184
  C           2.27138720733896      0.88614007565851      0.79654592600649
  H           2.87529647997878      1.79241349627139      0.80190226573451
  H           2.40527140126778      0.36041471186745     -0.15184044161888
  H           2.58195612303084      0.22378608042375      1.60841247698077
  H          -0.79755950458407     -2.58191806199282      1.78784466427893
  C          -1.96036523009955      2.04735259278582     -0.95484460993904
  H          -3.00873485565483      2.33720147066404     -0.92295511485175
  H          -1.50074660711738      2.43950133051394     -1.86815516580865
  H          -1.43743152599861      2.45915592587458     -0.08726325242899
