17
Coordinates from ORCA-job P E -26.493128020580
  C          -1.43714950410544      0.97416259580426     -1.66218435871048
  C          -0.83866487157571     -1.28262117387311      0.18347933020469
  C          -1.81638880331797     -1.36859403348955     -0.94678826029536
  C          -2.07956527181312     -0.36925783595222     -1.77337048632477
  C          -0.77233835499208      1.18209795893322     -0.30726648911664
  C           0.06973372974071     -0.05169092697247      0.04562347730786
  H          -2.31429650466614     -2.31963239140882     -1.06750496717365
  H          -2.78146168946951     -0.48920453559780     -2.58462141322708
  Cl         -2.69070261491059      2.24710155710847     -1.89526120870799
  H          -1.38698059556669     -1.22301814447660      1.12928384718085
  H          -0.72254231590242      1.12142552152357     -2.47937876142187
  H          -0.23475236278428     -2.19351827151209      0.21559904725554
  H          -1.54288117401910      1.30881103438455      0.45586384162978
  H           0.60507552368368      0.12388709756611      0.98649887632331
  H          -0.15335715551588      2.08069446710136     -0.32565939579753
  C           1.06122801448139     -0.28803982641533     -0.97939454817957
  N           1.84594395073313     -0.47996309272355     -1.78781853094711
