17
Coordinates from ORCA-job TS E -26.386731765360
  C          -0.75083603959143      0.79583906326116     -1.29021566754150
  C           0.62486272283370     -1.50182718581143     -0.25585455895965
  C          -0.70888311809675     -1.49163460502074     -0.49049358812600
  C          -1.38977605713109     -0.38062713706713     -1.03570434002292
  C          -0.12890229128182      1.31643506335283      0.78352425157598
  C           0.59376409722331      0.29062370608800      1.32233272376005
  H          -1.32023446049557     -2.29617300622478     -0.10517631050669
  H          -2.46982332404838     -0.40346649145249     -1.05105414997902
  Cl         -1.64477165409317      2.17184859589428     -1.82490405134099
  H           1.08288727925777     -2.32187307143270      0.27209600797786
  H           0.29261719530312      0.84987245720942     -1.55391698085414
  H           1.30413837406380     -0.86171320909526     -0.78872926150227
  H          -1.15405918741401      1.46013179213487      1.07767628925683
  H           0.14037287774560     -0.42501230608799      1.99241504471775
  H           0.37906647409765      2.17586109341499      0.37924501626240
  C           2.00115990167114      0.29745641715075      1.29023209252496
  N           3.14841720995613      0.32425882368621      1.27852748275735
