16
Coordinates from ORCA-job P E -25.086927179820
  C          -1.38914329685837      0.63331890693912     -2.18344270999269
  C          -0.37464497523984     -1.66882505855530     -0.60732167074429
  C          -1.21202695320892     -1.81085157963216     -1.84042461829736
  C          -1.65911712528910     -0.78546900774585     -2.54803397906884
  C          -0.86213415155708      0.78347771049344     -0.76344126849787
  C           0.19874247738484     -0.26632229434310     -0.47710809009231
  H          -1.43358997709803     -2.82147268198204     -2.14949890452643
  H          -2.23792687868036     -0.94245047893001     -3.44626284197534
  Br         -3.06016335388615      1.69164031895257     -2.35993347699915
  H          -0.99120175283351     -1.88028931608979      0.27458640114823
  H          -0.71224597407188      1.09218129023963     -2.91065207004319
  H           0.42857365502755     -2.41002094482317     -0.62162776264223
  H          -1.67961074566054      0.63170837669641     -0.05212050185756
  H           0.64097297303695     -0.11057163278222      0.50902252171878
  H          -0.46491877407279      1.79007025146999     -0.61330708390517
  Br          1.70939485300723     -0.04734385990752     -1.73370394422457
