16
Coordinates from ORCA-job R E -24.990121283390
  C          -1.18601200254530     -0.09083827298964     -2.84594705768369
  C           0.05313674510963     -2.72282254754294     -2.07714855197956
  C          -1.19429752607471     -2.33882323971146     -1.82430780916762
  C          -1.76791816249131     -1.03924960892964     -2.11731718660082
  C          -0.90062836585165      1.97184425232211      0.14245238004855
  C          -0.40156953435663      0.77014912458828      0.34028485936379
  H          -1.87349023016333     -3.02879614621623     -1.34024279950195
  H          -2.75123713012576     -0.85348036668695     -1.70483778800248
  Br         -2.00406852400925      1.58288769153076     -3.15527869745358
  H           0.39287665165209     -3.70946740348115     -1.81502384266930
  H          -0.21914152647199     -0.17788556474165     -3.31165786304777
  H           0.78199448604510     -2.07530347497116     -2.53146105957937
  H          -1.88270568412371      2.22513033051884      0.50437166788754
  H          -0.90306109694908     -0.02958520101990      0.86073814173938
  H          -0.36379377926549      2.74045669690834     -0.38632621998505
  Br          1.31661567962141      0.26456373042238     -0.27945817336807
