18
Coordinates from ORCA-job NEB E -42.717607120010
  C           1.04089036574428      0.34512872239655     -0.34882948930829
  C           0.24705097433986      1.47461714999801     -0.54402800692204
  C           1.07334895100086     -0.71504896457836     -1.41847381309283
  H           2.03211631446115      0.49246149959125      0.06649571304037
  Cl          0.77646968193085      2.91012292534734      0.35627666218613
  C          -0.04593285458385     -0.54127603980860      1.17434163427682
  C          -1.32500295962023     -0.51452142793254      0.61231312536076
  C          -1.94968813570372      0.70417305472339      0.33280752352530
  O          -0.94258060582202      1.44132299201351     -0.91987007039077
  O           0.52163387301258     -1.74695753089179      1.37525978806983
  H           0.23386437358548      0.24853211918750      1.86935953218066
  H          -1.65525050935853     -1.41121777249969      0.11106527466828
  H          -1.84294369391680      1.51896217188641      1.03870106951189
  H          -2.89724637984789      0.67934625648921     -0.18329182140112
  F           1.70367180877678     -0.25381181619410     -2.51882143344903
  F           1.78128076673077     -1.78460758693283     -1.02190364000069
  F          -0.11106080702685     -1.16062102116925     -1.82980863724442
  H           1.35937883629725     -1.68660473162598      1.84840658898915
