18
Coordinates from ORCA-job NEB_reactant E -42.751861397050
  C           1.63040481136270     -0.07106085097008     -0.11781182097677
  C           0.88418647846818      0.08789255833154      0.98384482990910
  C           2.19408084637068     -1.40441928813422     -0.47014996720993
  H           1.85868311228262      0.74066887348271     -0.78179703951362
  Cl          0.24702299672958      1.65347939631379      1.34334875607182
  C           0.07057914550334     -2.29445655777931      4.83831660218772
  C          -0.36678692471723     -2.05421400559180      3.60839861753162
  C          -0.23936901032610     -0.72823228501335      2.93781752247505
  O           0.62199192086145     -0.90592819410879      1.80559014375401
  O          -0.01077578962937     -3.46557861846067      5.49118750508974
  H           0.52241624110313     -1.53052801145671      5.45559174475197
  H          -0.80350624334467     -2.84085514281149      3.00979741788462
  H           0.19349545850279      0.01346767025580      3.61724802805188
  H          -1.21539176614521     -0.36984190401458      2.58669571526175
  F           3.06806263381463     -1.87329164833922      0.44080075060166
  F           1.25673647064310     -2.36200210518222     -0.59933139632841
  F           2.85333226484315     -1.36282043623760     -1.63593495300246
  H          -0.39026264632279     -4.14477945028379      4.91768754346024
