20
Coordinates from ORCA-job NEB E -47.895658354980
  C           1.08721783345545     -0.30275090503037     -0.44916946635999
  C           0.78068357508630      0.37478841781054     -1.65590819532969
  C           0.84123030111288     -1.79701622007229     -0.41702668638149
  H           2.08084288175432     -0.09520900757699     -0.05595306745826
  H           1.41268206484275      1.22347981992571     -1.93340701398011
  C          -0.10324459320608      0.66921350777608      0.68266859251615
  C          -1.36456276615701      0.51313247544415      0.07477034666012
  C          -1.53784351525825      1.00363183638108     -1.24414915253555
  O          -0.39263678953317      0.29197595723769     -2.17249553687432
  C           0.00642375721715      0.35941634527638      2.15008744338942
  H           0.38801003705048      1.62704506944857      0.50729044653844
  H          -2.03341445816270     -0.25190266112531      0.43619109033971
  H          -1.26928826417640      2.04133689532386     -1.42158728265087
  H          -2.45951829739520      0.72265363134647     -1.73818761923732
  Cl          1.47168627985402     -2.55109473641016      1.06433541243961
  Cl         -0.82208044281734     -2.31551635901631     -0.67161668933526
  Cl          1.82269465491361     -2.49185537890710     -1.77152765058068
  Br         -0.80502370376394      1.90505069472862      3.09424855555871
  Br         -0.95594252962429     -1.20502284347267      2.75684879606810
  Br          1.85208397480743      0.27864346091206      2.76458767721328
