20
Coordinates from ORCA-job NEB_reactant E -47.942100415490
  C           1.53203836874005     -0.09548417641916     -0.09010729718359
  C           1.03332609504746      0.99384766015976      0.49650950792685
  C           1.75423760665638     -1.36315188041242      0.64776792918486
  H           1.79081713030625     -0.08019189867276     -1.13338970557796
  H           0.88361111533809      1.90431905612652     -0.07329126191512
  C          -0.02015421268530      2.91944711985612      4.68596457806592
  C          -0.15271045017091      1.99567627948713      3.74803068174753
  C           0.17303379640548      2.22290988198645      2.30796371342708
  O           0.70023276667577      1.01595732863185      1.79464799352495
  C          -0.35797541548738      2.76297629038445      6.11678656275674
  H           0.34999192085147      3.90943225692450      4.44502438558288
  H          -0.50821082918616      0.99815574055225      3.96634191008023
  H           0.89189329333979      3.04426216114686      2.18694353266575
  H          -0.75149171763125      2.48720384569775      1.76957089002950
  Cl          0.22452104311073     -1.98092805592049      1.33758264096141
  Cl          2.41974064829994     -2.60727594795775     -0.42260475101069
  Cl          2.89388660429012     -1.12523820896160      2.00583957500431
  Br         -1.75780341445688      4.07634510758447      6.59074223442787
  Br         -0.99996812288906      1.00556147763168      6.62052263969771
  Br          1.23308377344542      3.16677596217439      7.20885424060377
