20
Coordinates from ORCA-job NEB_product E -47.935703515910
  C           1.50568931269520      0.82189861515260      2.28785833627829
  C           1.24575552256711      1.13708283785100      0.80058828016179
  C           1.43998755854359     -0.70019622712064      2.43032004004713
  H           2.54053778099532      1.09510433405472      2.52329274621969
  H           2.10500303803685      1.60970270848140      0.29534502157338
  C           0.56971651897613      1.76684310149190      3.09061867816408
  C          -0.88897815585648      1.66741662167814      2.73175934423240
  C          -1.54796255044275      2.65345188824230      2.15254468041930
  O           0.21346468396944      0.92929393637601      0.24487949771934
  C           0.71352238815019      1.74025270026051      4.61286746624988
  H           0.91152744196924      2.77063378710603      2.79064494607883
  H          -1.39410155982718      0.75349077134922      2.99928200830691
  H          -1.07479588407415      3.58199846539392      1.87630377051963
  H          -2.59462192185381      2.56457606962132      1.92394312623047
  Cl          2.26612615929257     -1.28343552621414      3.89330991624603
  Cl         -0.17527573596363     -1.39853735832199      2.34532846844271
  Cl          2.38245553531765     -1.35086618333899      1.02552880360126
  Br         -0.15740872135385      3.35496972583690      5.31742105454803
  Br         -0.14217898919752      0.23756905688780      5.49008951994080
  Br          2.58033757805608      1.83625067521199      5.17947429502005
