18
Coordinates from ORCA-job NEB_reactant E -42.158733189020
  C           1.57336257062850      0.06633193092720     -0.04678630231322
  C           0.95636280673710     -0.68047955723494      0.89106571929774
  C           1.99756291605508     -0.49804747201174     -1.34941600544065
  H           1.77366099954991      1.10795119696753      0.13930135493220
  C           0.58446897152612     -0.05563596383819      2.11624564990210
  C           0.19088643386583     -5.16250268381043      1.92084226835647
  C          -0.17366515189367     -4.09292088326522      1.23714716544024
  C           0.03456200985291     -2.69687127719099      1.73112264424889
  O           0.69230955627689     -1.98126067756171      0.69355148638660
  Br         -0.10238348891887     -6.91423526801585      1.29605920114745
  H           0.66013221204055     -5.12806418825906      2.89182546994618
  H          -0.63116984323981     -4.17382847851071      0.26209315185199
  H           0.63776237967681     -2.68632340667211      2.64802693536529
  H          -0.93814018273249     -2.22957926557139      1.94659618332115
  Cl          0.59320952100801     -1.14824346763081     -2.24687423031115
  Cl          2.77403606983942      0.74134940470826     -2.34854290609337
  Cl          3.15740063178262     -1.84161861981066     -1.11096855442904
  N           0.28064158794509      0.43457867678081      3.10571076839112
