21
Coordinates from ORCA-job NEB E -41.168833189500
  C           0.26949245297430      0.10450839143298      1.05712948968254
  C           0.17603618894784     -1.26717986854537      1.31591591998804
  O           1.49949700574103      0.63312777198820      0.84054569505009
  H          -0.44901914699314      0.75782829854636      1.54698546380043
  Br         -1.56347767571727     -1.76947221422723      2.10290285564244
  C          -0.42687881908686     -0.02237605502843     -0.92543488833358
  C          -0.60418524392275     -1.36593821200258     -1.22083514566303
  C           0.48610618003210     -2.22899687259327     -1.04133833503517
  O           0.77990505893826     -2.17068179943635      0.70831835269525
  C          -1.60305088078378      0.91464947212511     -0.99145474608053
  H           0.50299239437556      0.44308109131238     -1.22970693394881
  H          -1.60456252826163     -1.77596524794943     -1.15996060487146
  H           1.46990808638702     -1.86983972006771     -1.31260750682274
  H           0.33810374615205     -3.28971121992804     -1.17983255522979
  C           1.61291886750293      2.03052163300646      1.03299749660814
  H           2.65992529980330      2.27104042322458      0.86167253745861
  H           1.33558285425809      2.30872455406514      2.05344853439068
  H           0.98752543952120      2.58428125060850      0.32781694186387
  F          -2.59624046325446      0.55729460740161     -0.14992834113422
  F          -1.23778940198236      2.17407318977048     -0.63038568638038
  H          -2.03278941463144      0.98103052629660     -2.00624854368040
