21
Coordinates from ORCA-job NEB_product E -41.217235010920
  C           0.43905032619250      0.50104062512862     -1.53782259009189
  C           1.03151147188567     -0.69612708325292     -0.81369770680387
  O           1.43052732495677      1.45622405081020     -1.77046953247684
  H          -0.39667275834703      0.91085244846176     -0.94839668022198
  Br         -0.23991986301160     -1.51176813349975      0.44512439727439
  C          -0.06828594124442      0.01158353014812     -2.91783998753297
  C          -0.80035422038315     -1.29839082466097     -2.82383655419978
  C          -0.34842618187154     -2.42690172974631     -3.33627603229361
  O           2.11088764882551     -1.15306711275843     -0.91682360912597
  C          -0.99713597288779      1.06257478262994     -3.53526563559903
  H           0.81118764075430     -0.07551988238485     -3.56317468312879
  H          -1.74543059631610     -1.26154429627756     -2.29877669716009
  H           0.59358289582519     -2.47956094021049     -3.85722163139328
  H          -0.89938798490165     -3.34626726767859     -3.24392170001482
  C           1.77210841292400      2.23099797130226     -0.64238441060857
  H           2.48725186276735      2.96935671648370     -0.99625309874209
  H           2.23474450262855      1.62142645575178      0.14141079931132
  H           0.89158350053490      2.73860580144719     -0.23321800010219
  F          -2.02959745189830      1.34214027931303     -2.70220455479471
  F          -0.36794403622724      2.23293005739176     -3.76057396218707
  H          -1.42278058020590      0.71641455160151     -4.49067813010815
