15
Coordinates from ORCA-job NEB E -30.375838699830
  C          -0.50619072916975     -2.35134168967337     -0.17597263661217
  C           0.31043040444880     -1.56844754703682     -0.93507900486577
  Br          0.41009798168313     -2.47232068174615      1.56275535926860
  H          -0.74343830313638     -3.35427018520651     -0.50193551755094
  Br          2.32027311102772     -2.07093349281158     -1.60104968980675
  C           0.58019473463287      1.41504955774567      0.79674006215810
  C          -0.57873011210951      1.37864825700550      0.14433856540972
  C          -0.91829583835400      0.42299804412918     -0.95560457584007
  O           0.21211316877584     -0.37319959089860     -1.32519556530747
  C           0.82007290319478      2.34164991283928      1.83289487210749
  H           1.40398898776304      0.74934467159871      0.57448839614213
  H          -1.37799062572340      2.06240364425607      0.39448241575582
  H          -1.21057735525266      0.97443899090849     -1.85541471309875
  H          -1.73944279252219     -0.23505074797554     -0.64046621007224
  N           1.01749446474171      3.08103085686569      2.68501824231229
