21
Coordinates from ORCA-job P E -42.255640723180
  C          -1.33609981206090      0.41206155412862     -2.36522217811992
  C          -0.13391425646273     -1.70790576571340     -1.09791926801448
  C          -1.49794907961580     -1.90104266149289     -1.68086978764482
  C          -2.07959695513147     -0.89062086752373     -2.30361394133419
  C          -0.81392731967794      0.76709351527744     -0.96529300413994
  C          -0.05910012311405     -0.39573191598684     -0.29051608783495
  H          -1.96354430366376     -2.86792241030180     -1.59183906087346
  H          -3.05999445388277     -0.94978858516197     -2.74568683740116
  N          -2.25187951837331      1.48727892035715     -2.81996749546823
  H           0.13023945705185     -2.55099586493173     -0.46004211911962
  H          -0.51747026685534      0.36364384065593     -3.09350248915962
  H           0.59008743642643     -1.66783686935485     -1.91958085006562
  H          -1.67963319926007      1.03819760339283     -0.35649378476137
  H          -0.51515365832047     -0.58590340307352      0.68858483350117
  H          -0.17730291791142      1.65190148179985     -1.04185078462342
  C           1.39008128313728     -0.01282639392852     -0.01610758354301
  O          -2.01419248076158      1.99780235845069     -3.88456803509350
  O          -3.17668502247836      1.76012400442084     -2.09554325994520
  Br          1.48150188896232      1.53684191955199      1.18988639416661
  Br          2.36563857082314     -1.46603507262073      0.85533949320130
  Br          2.34216473116897      0.44760461205466     -1.66316415372658
