21
Coordinates from ORCA-job R E -42.171107228710
  C          -1.46377443421769     -0.40636197197277     -2.90938007223918
  C           0.12852987942924     -2.96388210060494     -2.97650319583427
  C          -0.98421764953481     -2.75565278447259     -2.27528596110253
  C          -1.61110756621915     -1.46824603410953     -2.10632306600838
  C          -0.58779213598878      2.46067106677581     -0.33180535179650
  C          -0.38443829576130      1.56681747073818      0.61690319810624
  H          -1.44903401275413     -3.57137295745881     -1.73840005439842
  H          -2.26615295578670     -1.35713597922377     -1.24892888472094
  N          -2.08339393816932      0.82917810089092     -2.60007776008700
  H           0.56924792886712     -3.94327858529883     -3.04896160084855
  H          -0.88038365048483     -0.39021532405144     -3.81733768452477
  H           0.65005971972276     -2.16359041793212     -3.47339664635583
  H          -1.36938704814450      3.19348656817748     -0.23293292508289
  H          -0.98848577230583      1.55534754187667      1.51530876024774
  H          -0.00067715109487      2.49323616702839     -1.23584563631411
  C           0.65972248106916      0.51589008789451      0.61311574207740
  O          -1.95606442672394      1.73024322017321     -3.40735171782682
  O          -2.68208876288589      0.93560681099602     -1.54469075457029
  Br          2.03738037183407      0.95441809314026      1.96353329758184
  Br         -0.11727762451136     -1.21925376699800      1.10231446163316
  Br          1.56146504366071      0.26795479443132     -1.08724414793587
