21
Coordinates from ORCA-job TS E -42.151118467470
  C          -0.81316484391437      0.38599599918017     -1.32302365668181
  C           0.47263300968099     -1.84074176727918     -0.06322513231613
  C          -0.85452309671412     -1.83720693675017     -0.34401600855813
  C          -1.48383718226366     -0.76030457049337     -0.99320033006609
  C          -0.24206395237297      1.05044154041603      0.72116727222884
  C           0.56281999498664      0.12639827830713      1.31311029724666
  H          -1.49107850329783     -2.59965995047679      0.08156348997945
  H          -2.56473508340624     -0.73696754121476     -1.04241999979136
  N          -1.55298202925182      1.51576117190020     -1.80015051278120
  H           0.89082162814296     -2.62424623349570      0.54658464184122
  H           0.22889642323850      0.42851993403266     -1.59879177157882
  H           1.17304617097952     -1.27533319881664     -0.65054745450486
  H          -1.28110563848968      1.09976222715647      0.99508216533948
  H           0.16796922008334     -0.56427267483835      2.04294425901730
  H           0.18089868645121      1.93762192275107      0.27553641187429
  C           2.03266329145013      0.32889590042340      1.38164597807378
  O          -0.91469039526435      2.39588381621802     -2.33763538060058
  O          -2.75137229374432      1.53720783582517     -1.61374564166364
  Br          2.42303740068721      1.76411456945983      2.73037938139641
  Br          2.99695084245059     -1.25227110692501      1.98726819208569
  Br          2.81981635056826      0.92040078461984     -0.30852620054054
