21
Coordinates from ORCA-job NEB_product E -41.703577043420
  C           3.72744840564615      0.76258145382660      0.76948758081922
  C           2.54832907172827      0.98974684809518     -0.17721700021820
  Cl          3.39990378033900     -0.66864454040329      1.77160703915969
  H           4.62694026644073      0.55636667032133      0.18283980414310
  O           2.88242655964369      1.91100523470115     -1.08241101485467
  C           3.92032717056984      2.02671725089299      1.62245150253432
  C           2.63289957591488      2.42578921645121      2.29161627117718
  C           2.03445997159634      3.58190719664733      2.08329942707208
  O           1.48583916597408      0.44717889948760     -0.11769381937499
  C           5.04606790524954      1.84422192569038      2.65365871059201
  H           4.24791910743729      2.82723526846382      0.94860907971277
  H           2.21973938521318      1.69122492887459      2.96730654838493
  H           2.44236551334472      4.32428526616109      1.41606148566545
  H           1.11326642369202      3.83510013610040      2.57770185627463
  C           1.86193461850109      2.26735785780172     -2.01187714625957
  H           2.30055184472744      3.01214616766302     -2.67010213216988
  H           1.00001028617631      2.67751046484739     -1.48306914967814
  H           1.54461440820889      1.39049812143762     -2.57843889045824
  F           5.57847838185081      3.05408988519120      2.95893123952366
  F           4.60844326291277      1.32802098339620      3.81778125939606
  H           5.86463489483295      1.20416076435248      2.28725734855857
