23
Coordinates from ORCA-job NEB E -51.602782078390
  C          -0.12483640279345      0.91184296735637     -0.56426247978767
  C           0.71182214393606      0.00259025802120     -1.25633641512141
  C           0.36393165081647      2.16570825290427      0.07900262272754
  H          -1.00415686943452      1.13906513651722     -1.16539647514117
  C           2.15713348826333     -0.25990138193243     -0.82126436036740
  C          -1.14819675718231     -0.27735801353911      0.64535699935709
  C          -0.99759184176909     -1.56200547369008      0.09565631407526
  C          -1.22915625132221     -1.75734587588566     -1.26506863527025
  O           0.15379004757672     -0.89293776407208     -1.96052679656578
  C          -0.72061994141283     -0.14155145018906      2.09260534918598
  H          -2.08752988478669      0.22883853855369      0.44341261339901
  H          -0.30294820743183     -2.23216324389903      0.58695694273364
  H          -2.01644983162066     -1.19351969977727     -1.74955174563995
  H          -1.05007587441581     -2.73111474668787     -1.69552756079864
  Br         -1.14851497834569      3.16921658389004      0.81427312866654
  Br          1.69949955026736      2.00418788687396      1.48270099527446
  Br          1.16393776594480      3.32155665332799     -1.33934448535951
  F           2.16356763945704     -0.82409368622648      0.42178383538834
  F           2.72938575389727     -1.15094293715594     -1.64497354758632
  H           2.79352178492512      0.63704754040092     -0.79259118185660
  F          -1.58738473992201     -0.89072845299314      2.85302373740032
  H          -0.80083337212669      0.87965380374942      2.47480695203700
  H           0.28170512747965     -0.54604489554694      2.26526419324951
