23
Coordinates from ORCA-job NEB_reactant E -51.649858846070
  C           1.32986621875434     -0.54739909051932     -0.24582015097448
  C           1.89481236598170     -1.65989615089022      0.25175787027567
  C           1.99885646146134      0.51229739867278     -1.02392625914312
  H           0.27406199769647     -0.38672271261416     -0.08593162693271
  C           3.37142538830326     -2.01469674532336      0.12428598915243
  C          -1.12575247463295     -3.67264967440414      3.17616531513119
  C          -0.52004316649646     -3.71108776697059      2.00198085415428
  C          -0.11865508482544     -2.49382760282135      1.23066024702522
  O           1.27138431818531     -2.60432239850648      0.95238351106318
  C          -1.54650216368638     -4.88079007710727      3.94719039828420
  H          -1.37181965334566     -2.73673774060767      3.65891533892680
  H          -0.26926109684896     -4.65378359808473      1.53879782703110
  H          -0.31396496096102     -1.58158122515872      1.80846918261443
  H          -0.67615427208223     -2.44990944296312      0.28374571409131
  Br          0.74319103083861      1.94873097324912     -1.41384840590671
  Br          3.53576684050185      1.32946597142494     -0.08422428274905
  Br          2.66333500160392     -0.15225511474812     -2.78467071732812
  F           4.01023328058463     -1.71343417323919      1.27865987219777
  F           3.51031264515359     -3.34023704552017     -0.06468738774363
  H           3.89384794495776     -1.50472529195955     -0.69704937805413
  F          -1.28766747552351     -6.04162859155754      3.26999450294179
  H          -2.62578035752747     -4.86049677963908      4.14477620630037
  H          -1.00679278809270     -4.93901312071206      4.90097537964224
