17
Coordinates from ORCA-job NEB E -36.655759479320
  C          -0.11624440033592      1.44818102696842     -0.30642230841478
  C          -0.96104729900091      1.05254696072005     -1.36257472730303
  Cl          1.56412581779096      1.77347693214861     -0.69111543357671
  H          -0.50184971505241      2.18801567296365      0.38747424982987
  H          -2.03442044471101      1.22759095270332     -1.22958816932339
  C          -0.07196499720683     -0.20005866374383      0.63768496218589
  C           0.42644657538778     -1.09251904433690     -0.33144084659418
  C          -0.36259979736956     -1.33039570813338     -1.47750249035749
  O          -0.57607796486254      0.15999624510570     -2.19726243067344
  C           0.67360769689258     -0.06262630177596      1.93376735606171
  H          -1.13992199851821     -0.26796863382501      0.84694214421726
  H           1.49641245554213     -1.22177013227318     -0.41084059935738
  H          -1.40605247707878     -1.58447179414648     -1.31914120141542
  H           0.09703285982752     -1.90267128859621     -2.27228620709854
  Br          0.18959594871469     -1.64235933187790      3.02764783377133
  Br          2.60230235395805     -0.04528028806371      1.80252252833000
  Br          0.12065538602246      1.50031339616280      2.96213533971829
