29
Coordinates from ORCA-job P E -34.648269798630
  C          -1.49719225193318      0.43080377835422     -2.32268084729825
  C          -0.33866881353049     -1.74632718824173     -1.12043289654619
  C          -1.73383726580933     -1.87607512754874     -1.64199614887704
  C          -2.28711698878729     -0.84149257391309     -2.25300037670718
  C          -0.95314389698305      0.71983439463955     -0.90938903461066
  C          -0.13959645471977     -0.44452117441401     -0.31022450727287
  H          -2.24503749145318     -2.81959840627076     -1.52652725349037
  H          -3.28267492400882     -0.85080410407729     -2.66890512107925
  O          -2.22750774724040      1.52410178059094     -2.82983719870464
  H          -0.08798451002377     -2.60589875974390     -0.50057675414350
  H          -0.65659577466954      0.31347517976016     -3.01764165458804
  H           0.34017294400634     -1.73789496890241     -1.97744287911780
  H          -1.81732590737344      0.92371335878734     -0.27029875258306
  H          -0.54268229963911     -0.64029173014388      0.68990491487589
  H          -0.36564613349707      1.63491326517823     -0.95575334898408
  C           1.36111773977069     -0.10167782163480     -0.10485011127547
  H          -3.00085656565940      1.66043771959913     -2.27061300284432
  C           1.48358774610166      1.00983172378244      0.94562135200969
  C           2.10774255426719     -1.32758266879724      0.43701746020367
  C           2.04274170828902      0.35257266609577     -1.39779594054033
  H           1.03951694305189      0.69390537250440      1.88728455504422
  H           0.99002144512633      1.92358459450878      0.62721151064437
  H           2.53131328776095      1.24116904493125      1.12475006541779
  H           1.59956091054582     -1.73445239545022      1.30868575348246
  H           3.11515103851226     -1.04450903398449      0.73483999228094
  H           2.19022005972290     -2.10794210887144     -0.31408008147467
  H           1.57812426630557      1.24686941754620     -1.80303788935977
  H           2.00756020774180     -0.42499178207566     -2.15666489250293
  H           3.08870617412541      0.57741754779125     -1.19998691195861
