29
Coordinates from ORCA-job R E -34.570689885120
  C          -1.45833398291296     -0.48081065414277     -3.02235764393898
  C          -0.48899780566516     -3.34562734128862     -3.05741823844999
  C          -1.18523154629356     -2.75437948367868     -2.09120005093649
  C          -1.52474688788447     -1.34910395930055     -2.01029474276133
  C          -0.94493513441822      1.91102012893193     -0.05782351344085
  C          -0.26653435655318      0.98804190164956      0.60023690488941
  H          -1.53035022452261     -3.34956619971695     -1.25422442493691
  H          -1.87390582467229     -0.99319886231795     -1.04725868727242
  O          -1.75963603360414      0.83147523648693     -2.94760895028745
  H          -0.28246486513065     -4.40124153679935     -3.03231209582282
  H          -1.16195458777818     -0.76233405018493     -4.02189951106421
  H          -0.09711151924281     -2.80507501276457     -3.90140194192947
  H          -1.94056205297651      2.19674638293554      0.24444654928410
  H          -0.72812527094020      0.50446669692413      1.45391092868599
  H          -0.53388227178291      2.44860232513267     -0.89553367143817
  C           1.14354074281501      0.53049076203597      0.33178030945665
  H          -1.93679775930587      1.07508484742038     -2.02615338323870
  C           2.05047041226147      1.22492521743675      1.36014389260379
  C           1.22308318410167     -0.98600479865337      0.53290288422488
  C           1.61742967122891      0.87623642883320     -1.08017665861266
  H           1.73211426369610      0.99101236723240      2.37377261140586
  H           2.01347220313593      2.30427650489690      1.22994542068822
  H           3.07990836864510      0.89526040794278      1.23704634218701
  H           0.92548599027088     -1.25780919711912      1.54404727515010
  H           2.24126135120132     -1.33538204477141      0.37593718313009
  H           0.57380131665764     -1.50370703070581     -0.16990863272397
  H           1.63496335834635      1.95182032711326     -1.23470316109681
  H           0.96542506063202      0.42296622066669     -1.82304748097416
  H           2.62519420069133      0.49745441580498     -1.23388751278073
