29
Coordinates from ORCA-job TS E -34.549305211650
  C          -1.75743646259924      0.43571747987704     -1.83131016731785
  C          -0.55859213445168     -1.82702743299686     -0.55477869799326
  C          -1.89166759591414     -1.75706361693339     -0.80727190002384
  C          -2.48127747749244     -0.66289803538252     -1.46480672220941
  C          -1.08527455701870      0.97346899946685      0.25768855918564
  C          -0.24758769281318      0.02208059739613      0.75855833502468
  H          -2.55859830663334     -2.46601919225468     -0.33538583428599
  H          -3.56312257372293     -0.59400109847279     -1.47490459014818
  O          -2.32030307773789      1.56278884955084     -2.33907083304150
  H          -0.17660392342663     -2.64281861263617      0.03577771713354
  H          -0.71146093299604      0.38851473216764     -2.08053647679032
  H           0.14893813174062     -1.33825462931645     -1.19442267048260
  H          -2.10851138971024      1.01330286281971      0.58955020273401
  H          -0.62608723860410     -0.63827738244775      1.52515643965299
  H          -0.70716090487423      1.87189455262136     -0.19565303799247
  C           1.26022593193824      0.21433438894158      0.79949482109278
  H          -3.27550823198994      1.54118024446881     -2.19688490073303
  C           1.51897488882586      1.24706544099227      1.91341427311716
  C           1.98866850353360     -1.07736204192667      1.18204107799783
  C           1.84872183283141      0.75338786609140     -0.50654882646239
  H           1.12013284700357      0.89161809555206      2.86095921710893
  H           1.04056699505273      2.19393668179657      1.67652374503967
  H           2.58710386368003      1.41787525004210      2.03202219566885
  H           1.53671131538857     -1.52627063474381      2.06382872992718
  H           3.03158993808425     -0.86253703392171      1.40746161749947
  H           1.96392755475626     -1.80120818452370      0.37322809020543
  H           1.37399338930893      1.68520080137956     -0.80026324849628
  H           1.73741443332248      0.03716632382384     -1.31718645535968
  H           2.91222287451816      0.94420472856875     -0.37668066005138
