15
Coordinates from ORCA-job NEB_product E -27.099337730450
  C           1.75857127558310     -1.86622637498929     -0.87511080190251
  C           1.27140666323417     -0.53459464961188     -0.28903344550179
  F           2.85790541927570     -1.63120535772664     -1.66147775163538
  H           2.09204085498069     -2.54180317349088     -0.07266670009878
  O           0.50636463839141     -0.66763217235607      0.80848989776267
  C           0.66641004408612     -2.52916826900082     -1.73478346741096
  C          -0.54993481828267     -2.87104221649514     -0.92901100718812
  C          -0.77806084319558     -4.06836234188423     -0.42007789645063
  O           1.51825302011626      0.53153051915277     -0.75697840484064
  H           0.41212242061828     -1.83748840143342     -2.54033722192106
  H           1.09923292117051     -3.43066170554354     -2.17327789102931
  H          -1.25589469522534     -2.06605535962678     -0.77186311125580
  H          -0.09797479168295     -4.89032408788402     -0.57483601162372
  H          -1.66034485330065     -4.28278984874135      0.15792858355600
  H           0.34800274423094     -1.58717656036872      1.06363522954004
