15
Coordinates from ORCA-job NEB_reactant E -27.071079415740
  C           2.09258676447534     -0.06182484324312      0.13919506133628
  C           1.37141912326963     -1.18530717679983      0.15735773047053
  F           2.24767282737929      0.66436851517311     -0.99281669125298
  H           2.60237586059950      0.36020240670690      0.98815321377334
  O           1.21014004734967     -1.91919936045389      1.29539000735270
  C          -0.71859061200474     -4.39249089358921     -2.62298762376435
  C          -0.59651528025186     -3.17448029062575     -2.13243017590137
  C           0.01233708754951     -2.86216062015731     -0.80206209208915
  O           0.76227986467236     -1.66008345968969     -0.93724328012409
  H          -1.18403436419866     -4.57460250168046     -3.57568137569279
  H          -0.36774077365936     -5.25946697801842     -2.08741278734377
  H          -0.94257296614606     -2.30787251350185     -2.67654837439736
  H           0.65947337157148     -3.67766150327830     -0.45900150453261
  H          -0.77949045331122     -2.71531731981086     -0.05273820311007
  H           1.68185950270512     -1.50710346103133      2.02662609527566
