20
Coordinates from ORCA-job NEB E -43.297085571300
  C           0.65387039991513     -0.49971912515716      0.95471713307335
  C          -0.71951312488668     -0.83690363485641      0.94867283529100
  I           1.34789091953230      0.31377467150088      2.82947647634865
  H           1.33148407878034     -1.30011640479717      0.67791355634200
  C          -1.20090331268870     -2.09942461586100      0.26094810761839
  C           0.82667679942479      0.89267696813649     -0.25629142965860
  C          -0.47269950709183      1.35692001088739     -0.58065272583311
  C          -1.32028334928374      1.53902728189881      0.56409093191768
  O          -1.60624286188064      0.09944641896582      1.09756288383763
  C           1.69988654860275      0.43486047357055     -1.39325624822407
  H           1.38820424109334      1.58401926949749      0.37212386197394
  H          -0.95040845997141      0.95371812656562     -1.46693267387534
  H          -2.32325899400092      1.89907546395598      0.36075544591114
  H          -0.86447252847033      2.07116861234010      1.39940899647346
  F          -1.90263235910460     -1.78029045130234     -0.87442506383641
  H          -1.89394051694551     -2.64066167080713      0.91531077770908
  H          -0.37168214532512     -2.74868400864871     -0.03326403826801
  Br          1.97183772891688      1.92711271050182     -2.64346651616764
  Br          3.46994413247326     -0.10647905083095     -0.74910587078449
  Br          0.93624231091069     -1.05952104556007     -2.38358643984866
