20
Coordinates from ORCA-job NEB_reactant E -43.343070216860
  C           1.12893648736379      0.41992172146724     -0.28015486613024
  C           1.53529775305517     -0.12512226160171     -1.41962266848068
  I           1.22832867644420      2.40125446375001      0.43154304081554
  H           0.66164641547390     -0.22017310142702      0.44697921417144
  C           1.32920805173000     -1.61151745736218     -1.65304221216604
  C           3.98923524142235      2.81852532068186     -4.28507467403448
  C           3.04979057568307      1.92642812707771     -4.01490893945992
  C           2.46294016083511      1.73491978245511     -2.65460005037119
  O           2.14439260103582      0.36241276318383     -2.52824369044804
  C           4.58255171379194      3.08261967031403     -5.61267275263473
  H           4.39124330319734      3.45524964664652     -3.50560696750750
  H           2.63884028503771      1.27626399700970     -4.77475920694738
  H           1.55234853844470      2.34620083061204     -2.57721366666168
  H           3.16871433309331      2.05021358826359     -1.87851644649388
  F           0.74441615846367     -2.23324376529425     -0.59137179479187
  H           2.29697292297362     -2.09420966850063     -1.82877255827622
  H           0.68119765019777     -1.76368353303804     -2.52347974223661
  Br          6.53680355702592      2.83564735519463     -5.51353097734256
  Br          3.91648233824610      1.95768798265926     -7.04307067956783
  Br          4.23865323648449      4.96320453790829     -6.11678036143611
