16
Coordinates from ORCA-job NEB E -36.356802840280
  C          -0.84069960823483     -1.08556987696766      0.50814367642037
  C           0.08776318149921     -0.85787275428409      1.53273271300790
  Br         -0.42016835835289     -2.48237520824695     -0.72392840311931
  H          -1.89996465292078     -1.05233084822583      0.73848377115898
  Br         -0.63709465680317      0.16376005226346      3.04779969915763
  C          -0.45871910533574      0.59243054730562     -0.48420112877146
  C           0.92214104367587      0.52591018823264     -0.68541272694053
  C           1.77242834397049      0.58913544990355      0.43365762558293
  O           1.32139383737672     -0.79527276217491      1.34001357338055
  N          -1.31644883408486      0.47334132907040     -1.65559370855159
  H          -0.88916695799337      1.27278125401290      0.24579247777636
  H           1.26638253472028      0.06270665056730     -1.60075313402872
  H           1.55723008654304      1.32997874655553      1.19770295429311
  H           2.82703724760270      0.40822620139930      0.28102814824042
  O          -0.88961618456276     -0.14064353888078     -2.60064289505980
  O          -2.40249791709990      0.99579456946954     -1.57482264254682
