16
Coordinates from ORCA-job NEB_product E -36.402525044950
  C           1.97220658541702      0.49762708364806     -2.18242286995909
  C           0.72781397071716     -0.21842330201344     -2.63806754842374
  Br          1.73682859395183      0.79003369395778     -0.25761610676164
  H           2.85771260887542     -0.13214343368063     -2.29188055527763
  Br          0.84092561186477     -2.13181181414623     -2.35918832558366
  C           2.12990358484045      1.84165140767165     -2.88277871359853
  C           3.38931444620613      2.55648813991174     -2.48681443961438
  C           3.42471834541530      3.83683930015557     -2.17083669184628
  O          -0.25645098004100      0.27897875282056     -3.06362934742161
  N           2.18503434405042      1.58549209048163     -4.36546844803526
  H           1.25704826728565      2.48224920137560     -2.71290228117059
  H           4.28540573041869      1.95109243438271     -2.49301024958453
  H           2.53943979314512      4.45006117714151     -2.16704096814336
  H           4.34654936018834      4.32009574640789     -1.90067236996874
  O           2.23020848964159      0.42994647223769     -4.71176722581344
  O           2.19444124802311      2.54732304964791     -5.07910385879751
