23
Coordinates from ORCA-job NEB E -50.986887599670
  C           0.84912384324686      0.21458560906347     -0.61805075877234
  C           1.69627594105920      0.49088673754894      0.42008553890061
  C           0.52243386020001      1.05004333971722     -1.73846418115088
  H           0.07755298947528     -0.56274898969930     -0.30432162542752
  C           2.86917936896915      1.48659862409321      0.18549788872343
  C          -0.98700428398093     -0.80426395098541      0.77424426134881
  C          -2.07642802272334     -0.94840273829825     -0.12385448946569
  C          -2.80688030472372      0.03494501259462     -0.70813961478920
  O           1.71431151100096     -0.08595744854539      1.49756410164708
  C          -0.65240545724484     -1.92337135791167      1.60541288523481
  H          -1.01822922401352      0.17520610436938      1.25507221868587
  H          -2.34830087479800     -1.95921414733022     -0.40689164515573
  H          -2.70820522630077      1.08638623210463     -0.52717860718311
  H          -3.59284378109854     -0.25407472223798     -1.37532988901970
  Cl         -0.86231516109133      0.46643055241703     -2.64174211687883
  Cl         -0.00350363838771      2.76502771543723     -1.14528929379178
  Cl          1.87055762139746      1.31497245001751     -2.90518285479816
  H           2.87338622002097      2.08424313496709     -0.70493252422006
  H           3.79370200653965      0.97776457873868      0.41852820383907
  H           2.70823557498116      2.17334556565087      1.02563407324883
  Br          0.35819073386120     -1.76552048782099      3.19315123512030
  Br         -2.44681794475025     -2.62880772088071      2.31985947476287
  Br          0.16998424836091     -3.38807409300981      0.50432771914125
