23
Coordinates from ORCA-job NEB_reactant E -51.118647626410
  C           1.38512737491849     -0.46082457506832      0.06323110641788
  C           1.98728692697880     -1.56337304157773      0.53483348962547
  C           1.99713466395056      0.49663120879116     -0.88230932992894
  H           0.38786998588011     -0.19403829036072      0.37065407524463
  C           3.36456348236846     -2.01875174465210      0.17480609359030
  C          -1.00199089130420     -3.22793684190197      3.83382556726780
  C          -0.27801941543116     -3.34997490937838      2.73286393086711
  C           0.09651670270573     -2.19946422822718      1.85645086732286
  O           1.41495021070974     -2.42503470693525      1.40023721452913
  C          -1.43317843100478     -4.32988813092776      4.72005554711434
  H          -1.35618555109510     -2.25774175233543      4.16245048320999
  H           0.09322293666068     -4.30702338186448      2.39340464673371
  H           0.03049141193135     -1.24845563920068      2.40007501213809
  H          -0.59505900599190     -2.16462207985443      0.99991434250366
  Cl          2.56106691043831     -0.28235088136949     -2.38976693778112
  Cl          0.81550893170610      1.74236618306322     -1.33993971917053
  Cl          3.41084068495239      1.34869009841806     -0.16248782148402
  H           3.68464442383032     -2.76810101801359      0.89340986824411
  H           4.06187104055835     -1.18696132518470      0.17496975116751
  H           3.36276357205745     -2.46483175695694     -0.81754866859531
  Br         -3.40943908489656     -4.38258197838755      4.76973283744685
  Br         -0.80889301632087     -6.08857492286622      4.20087597912752
  Br         -0.79719386360228     -3.97895628520951      6.55346166440894
