23
Coordinates from ORCA-job NEB_product E -51.121172326410
  C           1.22274192915284     -1.14500272508781      2.00175846801370
  C           2.58418305912945     -1.87512193748763      2.14580130326806
  C           1.15552113946087     -0.19854283066206      0.80805506946198
  H           1.19528131984166     -0.48147492622915      2.87922426172718
  C           3.18633474975619     -2.55358444821716      0.95881535515927
  C          -0.03385997800453     -2.04854013651145      2.11431322101254
  C          -0.34045071960679     -2.89215409568294      0.90916223591874
  C          -1.50438281458441     -2.84947345297613      0.28713978494584
  O           3.12165504524180     -1.83743151194544      3.21952144562553
  C           0.00133281359391     -2.95006881404572      3.35030242193647
  H          -0.88096320911489     -1.36446403571356      2.26579405214101
  H           0.41733190137477     -3.59803922998003      0.60321948548552
  H          -2.28691268942021     -2.16913965694849      0.58002484033091
  H          -1.71482613793399     -3.49015547788626     -0.55048964929966
  Cl          1.11135535928609     -0.97761633103544     -0.78208705385373
  Cl         -0.30042732932040      0.83504188588622      0.93377938226973
  Cl          2.58787971737282      0.87462429312375      0.85892616733904
  H           3.98400728832031     -3.20959621910768      1.30012461613104
  H           3.61769993442648     -1.79460811799586      0.30787199440504
  H           2.46166173443162     -3.11628194878295      0.38138741642415
  Br          0.43039190701829     -1.97906975076813      4.98642486167370
  Br         -1.78403296723013     -3.71949778286264      3.60165092775535
  Br          1.23157794680824     -4.44840274908344      3.18367939212858
