17
Coordinates from ORCA-job NEB E -42.311792699740
  C           1.11527382437429      0.32421988428510      0.08604684159245
  C           0.42337854578206      0.48294535649847      1.29106398343554
  C           1.03729516051276      1.40417636995137     -0.95117181119802
  H           2.12040170597357     -0.07849538298151      0.17104008078981
  F           0.99110864224956     -0.20707012699900      2.33810012568458
  C           0.02054854362103     -1.34348186667585     -0.49521793929004
  C          -1.29296021026920     -0.90135171179549     -0.37253553979326
  C          -1.79309943918579     -0.57827400993069      0.89536275201855
  O          -0.77471713974097      0.78090881641017      1.41958539876896
  Cl          0.60329635286204     -1.80645744625590     -2.05045143073892
  H           0.46067698509267     -1.94571915868333      0.29156133319401
  H          -1.79616433264858     -0.52691248153064     -1.25024942574579
  H          -1.53752495120474     -1.21159698095840      1.73535748041020
  H          -2.77197205516734     -0.12689004669452      0.95683293474099
  Cl          1.92827040226527      0.97468532238302     -2.42209713037727
  Cl         -0.59660986260619      1.89896829531558     -1.38703545421182
  Cl          1.86279782808954      2.86034516766166     -0.25619219927996
