17
Coordinates from ORCA-job NEB_product E -42.357312051820
  C           1.60962481957783     -1.41783586453271     -0.57907992049585
  C           0.91343566016845     -0.82966803273615      0.62952049889544
  C           1.31997140597259     -0.57886695720231     -1.82432618175124
  H           2.68822891626559     -1.35574083015442     -0.38100124273264
  F           1.41940852958153     -1.40384512119581      1.75475225806094
  C           1.25478844106705     -2.92859822931747     -0.65732234043594
  C          -0.01875125245938     -3.25217039661471     -1.36641979153739
  C          -1.10244982308014     -3.66525352794278     -0.73502183093614
  O           0.06612546737004     -0.02329821276535      0.72164971674333
  Cl          2.60307312007666     -3.81815724360528     -1.45108939309820
  H           1.22522662806227     -3.31489323193707      0.36583921010581
  H           0.00700740566504     -3.17031496395588     -2.44233161438952
  H          -1.13668497481909     -3.76565788738665      0.33751333262310
  H          -2.00393652337109     -3.90776898459753     -1.26865741999103
  Cl         -0.41671326799429     -0.40019584986532     -2.13889770793941
  Cl          2.00208948804865      1.05440414749868     -1.55562351578207
  Cl          2.09355595986829     -1.26493881368925     -3.26230405733919
