17
Coordinates from ORCA-job NEB_reactant E -42.347287637870
  C           1.60256598100551      0.11872593733145      0.02391394384438
  C           0.94479473593069     -1.02260297092944      0.24603688552460
  C           2.02813214938075      0.52205065049253     -1.33412822428428
  H           1.83283085845558      0.76655047873749      0.85060315683119
  F           0.58241977417962     -1.33764246650907      1.49946576643436
  C           0.00627189008225     -5.12464651990569     -1.68138836526329
  C          -0.36228210250753     -3.86212180519611     -1.54055011653451
  C          -0.10651716633024     -3.07427487150761     -0.29641798818643
  O           0.60858504435831     -1.89606644606178     -0.68106410356481
  Cl         -0.30580928835097     -6.02812505938187     -3.10070043632960
  H           0.51075789383927     -5.68654594539562     -0.90924538382161
  H          -0.85360539502083     -3.32656463229230     -2.33833928184920
  H           0.48189231770819     -3.65165198429809      0.42514017393548
  H          -1.05697290282078     -2.78257885137851      0.17042501803943
  Cl          0.62465911865826      0.67280430539006     -2.43412315440531
  Cl          2.86566066320923      2.07776564233906     -1.28576041117029
  Cl          3.13221642822268     -0.69087546143449     -2.05426747920010
