20
Coordinates from ORCA-job NEB_reactant E -48.485436738870
  C           1.34262892150852     -0.52224644966178      0.15510264552639
  C           1.90814921999383     -1.06882036201178      1.24078588695925
  C           1.92422221189069     -0.27603147354183     -1.18266739489335
  H           0.30044457140698     -0.24495455556378      0.23136678930627
  C           3.35027191253080     -1.55208717484024      1.36092893334486
  C          -1.51252776208473     -1.81289696725286      4.38912496431465
  C          -0.40442602156346     -1.19368409233746      4.03319905495183
  C          -0.04451537442092     -0.87650306318059      2.61355949010821
  O           1.31403599925734     -1.25829920170517      2.42204515873449
  H          -1.74194243478390     -2.00653044407702      5.42175832454442
  H          -2.24086773659993     -2.14132492937235      3.66602282110721
  H           0.32584710437036     -0.87280426351890      4.76101659711175
  H          -0.14548312719169      0.20401976743205      2.43312504428067
  H          -0.69198386782519     -1.42162460642191      1.91622655153100
  Br          0.73778737362795      0.92779666520891     -2.17014005068018
  Br          3.68511436549977      0.57768677141083     -1.17090970304092
  Br          2.03053919278291     -1.94829653150192     -2.24877745994257
  F           4.17211183552527     -0.55883329719596      1.72493257150891
  F           3.45483530689688     -2.50209002360206      2.28848542567032
  F           3.83135830917850     -2.06967576826618      0.22811434955680
