20
Coordinates from ORCA-job NEB_product E -48.494638872430
  C           1.18721097124663     -0.48768923701031      1.10420563581029
  C           2.49838987167897     -0.66873227892257      1.83711913224953
  C           1.21042729523164      0.81223893682161      0.31274549735952
  H           1.03020880654532     -1.30983975093732      0.39625367456934
  C           3.08044633194444     -2.11743464455984      1.84146859504807
  C           0.05020771921168     -0.51897405811087      2.15648934157881
  C          -0.04146661250332     -1.86534842785143      2.81273527407378
  C          -0.91209482091866     -2.78800687552993      2.45073836484161
  O           3.08776965334067      0.18922579736197      2.42169711450148
  H           0.23751930860887      0.25251223208295      2.90736074595617
  H          -0.89087695750104     -0.29813724554514      1.64688982603758
  H           0.66183711484672     -2.05217818817592      3.61282517560529
  H          -1.62222114966261     -2.61875486862708      1.65764004741998
  H          -0.95372441231008     -3.74728323665858      2.93480431392617
  Br         -0.39835963585261      0.94049530382666     -0.78376150454609
  Br          1.30813483100894      2.39445409128467      1.42331641221069
  Br          2.75992711031529      0.80015900230280     -0.90555092621272
  F           4.30612147368855     -2.12063776737077      1.31682649565294
  F           3.16458108415908     -2.58292041512860      3.08965243904923
  F           2.34646201692151     -2.99064836925231      1.14114434486831
