24
Coordinates from ORCA-job NEB_reactant E -36.566088922470
  C           2.37221927023465      0.19228724376321      0.86137926828688
  C           1.38669698592480      0.57368496808198      1.67183148537151
  O           3.07050113981361     -0.99065660696573      0.94836365317075
  H           2.64242698889645      0.85063012322269      0.04871252340129
  C           0.64531887809880      1.86797319702333      1.43963481534720
  C           4.08711955081992     -0.90339412116457      3.93379977810526
  C           2.86594595797489     -0.41180301556653      4.04943637421604
  C           1.64516700921320     -1.02465299342923      3.43098107791588
  O           0.84702323599722     -0.05735635073300      2.76082920693188
  C           5.31360705482988     -0.29008350382856      4.52907709039789
  H           4.24734626561626     -1.80589173306273      3.35861350070270
  H           2.68364522240130      0.49780199673945      4.60738537627248
  H           0.98019258729853     -1.41318613751401      4.21038208130631
  H           1.92286423188265     -1.83682921342864      2.75360111403631
  H           3.85513952511042     -0.93354147980182      0.39561915953318
  F           0.99550293742317      2.46679731857063      0.25987778068111
  H           0.86165990057197      2.58507871319824      2.24062092145954
  H          -0.43293961370437      1.67754420615719      1.40495243958616
  C           6.30780668336454      0.10467808899468      3.43678343020577
  H           5.78854063012402     -1.01334635088826      5.19805068820018
  H           5.04289378541330      0.58929495790619      5.11601538171075
  H           6.59660625849822     -0.76607802274416      2.85212743792942
  H           7.20347115636958      0.53882870003253      3.87470789630315
  H           5.85964435782700      0.83642001543711      2.76821751892836
