18
Coordinates from ORCA-job NEB E -42.340428255020
  C           0.13923205513330     -1.22100469023419     -0.76980603209301
  C          -1.22878192229061     -0.94962757039538     -0.87586986794547
  F           0.52761663204824     -2.07060522051198      0.19883145519418
  H           0.73224470629674     -1.33853817338769     -1.66900319026041
  O          -1.64260487723593     -0.42461015358225     -2.06020274119154
  C           0.65563595115143      0.53151988582144      0.07602380221465
  C          -0.13776274239408      0.50511243457664      1.21989726718947
  C          -1.54592962351473      0.55077347396243      1.04509188583545
  O          -1.96147494230263     -0.79691577330734      0.16803564000147
  C           2.15239979615389      0.54777192957779      0.20681775324444
  H           0.33301381850068      1.14794673260389     -0.75911747448230
  H           0.25875752455977      0.05502415160127      2.11629720819209
  H          -1.92422952576528      1.32125442899432      0.37856371989887
  H          -2.15330716632188      0.41938219824278      1.93035900144594
  H          -2.55933711996912     -0.12681796925726     -1.97194588924739
  Cl          2.62833512599048      2.21387576998330      0.68402432585754
  Cl          2.77570831246986     -0.56769060021732      1.42684897251484
  Cl          2.95048399748986      0.20314914552956     -1.34484583636881
