18
Coordinates from ORCA-job NEB_reactant E -42.368474758240
  C           1.99633213804221      0.06270819072086     -0.19692095927792
  C           1.49321673026385      1.20879180007683     -0.65207217284511
  F           2.61563322343708     -0.07580830132097      1.00301462497795
  H           1.95258194577897     -0.84733772301644     -0.76617215656675
  O           0.90033445670865      1.20958283320250     -1.86700253442537
  C           4.33880816710825      3.74204934109962      1.50372955599967
  C           3.59453423246459      2.79080881323411      0.96292515681617
  C           2.10827418430505      2.71212678826772      1.13110580931263
  O           1.44064733015253      2.44604221214891     -0.09041068401400
  C           5.81595634297359      3.85148763390017      1.39274000856166
  H           3.89822621843194      4.52770693609069      2.10214378099740
  H           4.03925012647668      2.00744415667950      0.36679822595165
  H           1.70228493837465      3.66992626864985      1.46443706048253
  H           1.86457553167153      1.94609601756208      1.87693251649653
  H           0.58312576936314      2.10650766778300     -2.04099034530396
  Cl          6.23508503589586      5.45080631156564      0.70830088687562
  Cl          6.53673032199134      3.74750397154798      3.02916686186848
  Cl          6.55500330656009      2.60635708180795      0.38187436409283
