18
Coordinates from ORCA-job NEB_product E -42.395608206210
  C           3.40200080795590      1.31974520928415     -0.27253643434993
  C           1.92918105418798      1.23936722182057     -0.67539560995368
  F           3.72779383564202      0.19188605656006      0.42426007155320
  H           4.02434686299106      1.33541026653249     -1.17710696761615
  O           1.60713235891352      2.27176100946107     -1.46027170874941
  C           3.62818823609067      2.59103467004218      0.56994455706700
  C           2.88650225028636      2.47898647907816      1.87562257076549
  C           1.96212600801217      3.33721897856333      2.25883855810129
  O           1.16336240721414      0.38571454181784     -0.34777909989003
  C           5.11282900494408      2.87753447851098      0.81641301324734
  H           3.23721417167120      3.43216953199987     -0.01313239404138
  H           3.15036734320658      1.62453232956774      2.48085697849944
  H           1.69087462813221      4.19110703714812      1.65950478532076
  H           1.44191607294385      3.22169950228035      3.19310058326687
  H           0.67374661808959      2.21965126562529     -1.72466871747955
  Cl          5.25077550494227      4.42343139071213      1.69245647069507
  Cl          5.91114710182937      1.62016718553979      1.77215210713495
  Cl          5.98079573294702      3.05338284545587     -0.73025876357127
