21
Coordinates from ORCA-job P E -28.557544732250
  C          -1.61686340656394      0.21529256063108     -2.20813437650930
  C           0.00977558438145     -1.68311659268762     -1.04664630061294
  C          -1.44603423110100     -1.99299362951442     -1.21481055159985
  C          -2.22324577105789     -1.09540466719716     -1.79802139066477
  C          -0.82527709611373      0.74490121504022     -1.00175361017300
  C           0.20427914395676     -0.26608877058972     -0.48967180708422
  H          -1.81186925821806     -2.94801326964091     -0.87318831465483
  H          -3.28063510860334     -1.23423247860583     -1.94642111177615
  N          -2.64633205334929      1.16752248518560     -2.59016447558680
  H           0.50276731052431     -2.40682537783877     -0.39800505460128
  H          -0.90271519929255      0.03592968306190     -3.03915192766820
  H           0.49147606309803     -1.73352622386068     -2.02866631092313
  H          -1.54552982898071      0.95910244775319     -0.20986870267482
  H           0.19051342387434     -0.28923692129593      0.60181328888280
  H          -0.32909973561861      1.68084206877334     -1.26351421575148
  Cl          1.86599030808518      0.27822500565352     -0.91239496594018
  C          -3.16093010263467      0.94720732217622     -3.92626278076755
  H          -2.27545323880302      2.11103133911432     -2.52632879144155
  H          -3.62748327068819     -0.03606056580499     -3.97246134167833
  H          -2.38346639312410      0.99263070710567     -4.70523668991029
  H          -3.91715713977098      1.69996366254094     -4.14073056886414
