21
Coordinates from ORCA-job R E -28.480120139830
  C          -1.28149064064692     -0.18507909894840     -2.95888866199742
  C           0.03091415239964     -2.47643855519966     -1.48514573317493
  C          -1.27143026607683     -2.31562293741654     -1.71099018453583
  C          -1.92089406845218     -1.18201439673427     -2.32610276811278
  C          -1.15507188472838      1.07326562967083      0.04583372089568
  C           0.09167062631439      0.65991311325675      0.13539597262799
  H          -1.94731482090951     -3.10365754680918     -1.39987531599865
  H          -2.99905590656272     -1.17412511662955     -2.26268795435111
  N          -1.84788225944326      0.95460941723694     -3.47039138377065
  H           0.41356477139334     -3.37080920436859     -1.02491648869948
  H          -0.20596499521248     -0.20660585212644     -3.05602609853269
  H           0.76155241980055     -1.73228065047974     -1.74913258209975
  H          -1.91825575216326      0.63137531758846      0.66097528069475
  H           0.42653268602498     -0.11947174533940      0.80088311862780
  H          -1.45440517043480      1.84879978237754     -0.63661914224792
  Cl          1.35393486360920      1.31678707505328     -0.82790185854235
  C          -3.27810165677052      1.10158607050187     -3.57330376315456
  H          -1.32048121317350      1.40413420386393     -4.20300727845777
  H          -3.72066771043651      0.99661369760581     -2.58229832970506
  H          -3.73547631289764      0.35836662513863     -4.23838074915931
  H          -3.50546686163361      2.09688417175772     -3.95082980030596
