21
Coordinates from ORCA-job TS E -28.463947665520
  C           0.00314218360731      0.17919848927073     -0.91891621238891
  C           1.50669179979754     -1.69262201837068      0.65940469339631
  C           0.20417953021360     -1.91164402583391      0.30373971963251
  C          -0.53700018506471     -0.99673262158765     -0.45533636023998
  C           0.49091557075002      0.96855425855472      1.24766693325018
  C           1.32326507943393      0.08920721540991      1.87051260910567
  H          -0.34376823780083     -2.71136065593751      0.78433577593688
  H          -1.60080284777200     -1.15914520925129     -0.54087951488373
  N          -0.70827637526644      1.18140435756550     -1.50767991135546
  H           2.00273808088112     -2.39265648158387      1.31340508700051
  H           1.06918370381429      0.26762964435531     -1.05053585110626
  H           2.16694626547752     -1.14552967581437      0.01017181300434
  H          -0.55908823720168      0.95069829523530      1.47008774412570
  H           1.00184939570269     -0.52505174019444      2.69525937943444
  H           0.87571928296596      1.83483266305188      0.74378221723570
  Cl          3.02630546286350      0.46679373800854      1.95779231492301
  C          -2.14307576057729      1.18466558168682     -1.60857511412750
  H          -0.21007299224658      1.83142490897122     -2.08981780801998
  H          -2.57987905422854      0.96127233635174     -0.63424933764368
  H          -2.51142177396880      0.44651359044060     -2.33134609287246
  H          -2.47755089138062      2.17254734967146     -1.91882208440729
