22
Coordinates from ORCA-job NEB E -39.764674422940
  C           0.58412483420979     -0.20379523599004      0.76030549015683
  C          -0.63655358047564     -0.87339036352816      0.97707956702026
  N           0.73801299553980      1.07320153890274      1.42967670862899
  H           1.49037198698041     -0.79422419560108      0.86524322403313
  C          -0.66205024769742     -2.38041549719476      1.08364121494175
  C           0.45736433920865      0.35956870131236     -1.04165716058382
  C          -0.73973938148758      1.08054438569237     -1.00993928441844
  C          -1.94535508201146      0.39824047514666     -0.62374440859713
  O          -1.76985931539620     -0.25420218645687      0.79606546227956
  C           1.73855017527945      1.08020642858412     -1.37250497233142
  H           0.42151572231519     -0.64486977496996     -1.45464241164616
  H          -0.70718472067164      2.15368595729356     -0.90962908554361
  H          -2.18788650328123     -0.48222332755074     -1.21928659144625
  H          -2.80882186516743      1.03961985817220     -0.48553691571717
  O           1.77480862047223      1.21872667661098      2.04386032514717
  O          -0.16650770881854      1.87132496856078      1.37774111114921
  F           0.42979541063803     -2.93732794694408      0.46361529455346
  H          -1.55990007421329     -2.77898757988480      0.59987750912481
  H          -0.63281998210071     -2.70916695855266      2.12945753383083
  H           2.60552053188722      0.50963155002570     -1.04879092694828
  H           1.77018196929083      2.06352677647945     -0.90949759147997
  H           1.80643187549954      1.21032574989223     -2.45133409215377
