22
Coordinates from ORCA-job NEB_product E -39.792683808560
  C           2.78578725719438      0.13251432050138     -1.59080991555850
  C           1.47412472811797     -0.53076859590362     -1.15069319470360
  N           3.11275825825539      1.19176759021385     -0.60213326620208
  H           3.61391333674000     -0.58204640227155     -1.54955578489210
  C           1.56710478746770     -2.04788548807771     -1.17231361991321
  C           2.63198083254946      0.68201043654769     -3.03466659528169
  C           1.36849084791224      1.47265861422745     -3.22027789203914
  C           0.40857707053935      1.12017390187866     -4.05344493275401
  O           0.49989477059695      0.08386349445322     -0.84381720184897
  C           3.85467958400779      1.52527443289284     -3.40480032792300
  H           2.59746813780086     -0.19678379538001     -3.68959909888779
  H           1.28903972108019      2.37236439928498     -2.62965938131659
  H           0.46632801270052      0.22302280486451     -4.64996679282250
  H          -0.47809890958319      1.71592218861146     -4.17633255439856
  O           4.01047456143413      0.91919239684429      0.16030756107263
  O           2.47197587145755      2.20562149993563     -0.60097640641063
  F           0.35668940099763     -2.62228869603078     -0.93836572791936
  H           2.25346358783092     -2.38655666882046     -0.38549977408321
  H           1.91790671702477     -2.39831835114258     -2.15041353869828
  H           4.77626373229277      0.97234572363305     -3.23375731301400
  H           3.88172198419594      2.44443569310297     -2.82469688237747
  H           3.80265570938669      1.79388050063474     -4.45652736002794
