23
Coordinates from ORCA-job NEB_reactant E -55.885021593100
  C           1.49271953048437     -0.03201620819366     -0.12752505846260
  C           1.62379194628182     -1.00380204498996     -1.03939835281776
  C           1.82977035455151      1.41588837393421     -0.23567015766006
  H           1.08058974391299     -0.26954575085871      0.84047449126308
  C           1.24745564391555     -2.42921852729735     -0.70440340146510
  C           2.67830032147903      0.14494794365628     -5.43235162443172
  C           3.10120309439140     -0.38538686403544     -4.29778936945212
  C           2.67555099102760      0.09802248985719     -2.94785150481618
  O           2.09783225680771     -1.02663477653614     -2.27979172066913
  C           3.10400887612461     -0.31523119515374     -6.78759038090013
  H           1.99000145023257      0.97872567871899     -5.44638112985333
  H           3.78185250112243     -1.22421671458941     -4.30022045875334
  H           1.94071034319823      0.90185896951719     -3.04121456255465
  H           3.54786188695363      0.44778840467231     -2.38437514281951
  F           3.13664642766006      1.66343523716006     -0.45635695822002
  F           1.16395667710785      2.05809383739428     -1.21752699640240
  F           1.51870617037325      2.04780387713174      0.89870085500600
  Br          0.09676158893445     -2.65808783157398      0.82312478248699
  Br          0.36759221771599     -3.23347277391046     -2.23707385505219
  Br          2.92058332895000     -3.39724770980490     -0.37281790448332
  F           4.00917388200642     -1.34015658428480     -6.72403122285096
  H           3.58355432447631      0.50067881267484     -7.34300836116884
  H           2.24277644229221     -0.68342664348854     -7.35942196592270
