18
Coordinates from ORCA-job NEB_reactant E -39.678900979050
  C           1.96897142349491      0.41516633419755     -0.05573422161758
  C           1.51829962395515      0.85983686169050     -1.24348545553151
  N           1.73252669996449      0.98890115081034      1.22357146167156
  H           2.57395482890666     -0.48151142937939     -0.03542250030424
  N           1.80696651368837     -0.02890564724841     -2.42269059833019
  C           2.58971381512775      4.03219780442304      0.67773782423696
  C           2.26847861859658      3.59529052655953     -0.52500576575753
  C           0.88853639344671      3.14895439096709     -0.90872654451435
  O           0.91418766826738      1.93759261376906     -1.66984713548868
  H           3.58499999986448      4.36746131582140      0.91025637055218
  H           1.86682788025313      4.07733175251528      1.47563346657095
  H           2.99889283809585      3.54449368482460     -1.32211257685253
  H           0.42634305527848      3.86636541976743     -1.59312128534690
  H           0.25954507747768      3.02852578942711     -0.01878577439967
  O           2.58313041336366      0.81422380142133      2.06587327535785
  O           0.68543117058138      1.58227482193420      1.40047597012717
  O           1.58759499553968      0.44133027588342     -3.50284915129677
  O           2.22959898409764     -1.13002946738406     -2.18436735907671
