25
Coordinates from ORCA-job P E -40.109676981470
  C          -1.37088730490359      0.42891244017018     -2.35164449162950
  C          -0.33902988533504     -1.81891992930251     -1.13420481361687
  C          -1.63721024462227     -1.92221961795108     -1.86828870397026
  C          -2.12106096258333     -0.86364737010820     -2.49652285416476
  C          -1.05305877267910      0.62684574100324     -0.86174238979246
  C          -0.20195078812649     -0.52558588683399     -0.29895340491650
  H          -2.13351623967305     -2.87887823742354     -1.90363219277173
  H          -3.03885232882527     -0.87257322352575     -3.06117809033696
  C          -2.18231801740540      1.59544677920639     -2.88130772226302
  H          -0.19740569968916     -2.68739546287456     -0.49222209340391
  H          -0.43912881143069      0.40468904741736     -2.93028723923804
  H           0.46092853387691     -1.82878107201708     -1.88225702016967
  H          -2.00424419607205      0.67934174751770     -0.32818013012364
  H          -0.56129348742459     -0.73843436456808      0.71233732408012
  H          -0.53601552312053      1.57690069679503     -0.71773426216033
  C           1.26987248924812     -0.10683834288770     -0.19170246358323
  F          -2.48032408949073      1.46030641808071     -4.18465849983302
  F          -3.35109124491490      1.75338318031544     -2.24170462489712
  F          -1.52912096782373      2.76566927406503     -2.76764981032498
  C           2.14288686335632     -1.15609654903413      0.48738632887502
  H           1.32752412456626      0.81808264742555      0.38669573325581
  H           1.66113689064463      0.10290265242504     -1.19008168580845
  H           1.74643694167477     -1.40011194688380      1.47051994022683
  H           3.15432754953805     -0.77680221013336      0.61203889793675
  H           2.19437517121485     -2.06919641087789     -0.09934573137009
