25
Coordinates from ORCA-job R E -40.013511080870
  C          -1.09433451252817      0.14506153916163     -3.02753968185938
  C          -0.76935445618308     -2.82928716497073     -2.67124222601983
  C          -1.66727750705709     -2.06190173085959     -2.06233607176904
  C          -1.89761002170959     -0.65490477641525     -2.32787412539983
  C          -1.32484372882833      0.47768678137639      0.64120994342019
  C          -0.32815560705906     -0.37873996872149      0.52161074878441
  H          -2.30904900511673     -2.49027012658266     -1.30496593860402
  H          -2.79762806686025     -0.23718963984247     -1.89664176619801
  C          -1.38144891593511      1.59204905502249     -3.23845041566696
  H          -0.65586907695301     -3.86928521630855     -2.41951892903256
  H          -0.16710530546368     -0.17724980813539     -3.47315725039313
  H          -0.12707110217761     -2.45641053267252     -3.45018521168895
  H          -2.22641247187287      0.23607413035590      1.17993212777237
  H          -0.39187726383749     -1.35945617210254      0.97703826277215
  H          -1.28160543114409      1.46221373028867      0.20537751233540
  C           0.95314503334220     -0.09658124085586     -0.19475822060470
  F          -1.36545988503107      1.92690634314078     -4.54359262444433
  F          -2.56935442573820      1.98622466145128     -2.76124880492955
  F          -0.45782699998689      2.37902801745340     -2.64850852201891
  C           2.14634492330642     -0.19610284462034      0.75607356109738
  H           0.91622471917155      0.89935973472927     -0.63912445678923
  H           1.07836853536218     -0.82785672416165     -1.00016267492215
  H           2.04234976305124      0.52115533914652      1.56687032164419
  H           3.07256610148125      0.01246266414406      0.22637254193088
  H           2.20851470776750     -1.19358605002135      1.18608190058360
