25
Coordinates from ORCA-job NEB E -43.810273926530
  C           0.73605168021443     -0.96531737969542     -0.43768008221944
  C          -0.10480171599010     -1.22317451613249     -1.54826578485088
  C           0.59678560933341     -1.82911479212706      0.76829328537986
  H           1.78543359643465     -0.81960325144505     -0.67894257407117
  N           0.39489784128501     -0.96442983936430     -2.80855065012815
  C           0.07273690606784      0.94473399123692     -0.10952280516752
  C          -1.30199833844375      0.76669005242387      0.01431452480336
  C          -2.02190232846203      0.26955178735953     -1.08928645068061
  O          -1.37430519360739     -1.29929666169789     -1.41916749378314
  C           0.90509495965635      1.57407910816752      0.98138064883438
  H           0.42224679936108      1.23175141201210     -1.09853547797828
  H          -1.73733225847511      0.65809500552253      0.99327040962497
  H          -1.80273830477563      0.69321145009625     -2.06358879581205
  H          -3.06536988265112      0.02788402173423     -0.94415856983978
  Cl         -1.00460124712169     -1.90759066189135      1.48698028128872
  Cl          1.01745717697559     -3.54499459507487      0.27633343181396
  Cl          1.77750940183972     -1.41062582276836      2.02534085127186
  H          -0.22963282706717     -1.17489692373191     -3.57097186286776
  H           1.36865206003354     -1.14658692481146     -2.98158315732136
  C           0.26363765282822      1.59823334728830      2.36319120954898
  H           1.09659539501719      2.60643389806316      0.67002367031891
  H           1.87672748240708      1.08198129690639      1.03832265576395
  H          -0.64060769940240      2.20146103920302      2.35446008044048
  H           0.95770792309155      2.03369556602417      3.07802414278094
  H           0.01175531145072      0.59782939270217      2.70031851284975
