25
Coordinates from ORCA-job NEB_product E -43.862369476420
  C           2.37775424160861      2.07861368610060      0.81239668475279
  C           1.56599612679848      1.36570288591313     -0.28949719309624
  C           2.61458947469944      1.09027245702274      1.94896707253972
  H           3.37790623348719      2.31059127786617      0.42952834346666
  N           2.03669346176893      1.58955550039605     -1.53497039870511
  C           1.65630195826860      3.43555402901548      1.06267811679406
  C           0.17342987436689      3.28772974566642      1.25185179400417
  C          -0.71201442803171      3.86854221964032      0.46498610990500
  O           0.57810672409165      0.71154782524487     -0.07367228406047
  C           2.28645141641381      4.31963151059822      2.15992528140081
  H           1.80301638810906      3.97006319947328      0.11418927222357
  H          -0.15436477338183      2.68550246387938      2.08223971673625
  H          -0.41927543135438      4.47362983156079     -0.37893283593852
  H          -1.77019934437299      3.76278285372502      0.62795733158985
  Cl          1.18825046144784      0.63684527116783      2.87076313344322
  Cl          3.27522974248651     -0.41488365174685      1.20297192716853
  Cl          3.87424007501578      1.66111654864588      3.07106625662167
  H           1.55059975625908      1.16506010059879     -2.30803302668744
  H           2.88904775436270      2.08645603737683     -1.71944000408181
  C           1.70067370335692      4.14726416993057      3.55687477091187
  H           2.13205149783221      5.35946037058564      1.86216817078309
  H           3.36272694251169      4.14508420310646      2.18604724465670
  H           0.66219459320423      4.46769714613238      3.57554791019013
  H           2.25960177951324      4.76153989017711      4.25914428940415
  H           1.75089177153808      3.11764042792286      3.89324231597732
