17
Coordinates from ORCA-job NEB E -41.176454318610
  C           0.79840195038028      0.65674656023761      0.77084536039685
  C          -0.52748980061124      0.19473353792532      0.92029414399461
  Br          0.94581684964335      2.58826266746982      0.74070540596511
  H           1.53872811474407      0.26520713777966      1.45990343838909
  C          -0.79231097426675     -1.10414873386873      1.64328533539174
  C           1.29565646184375      0.14530038544732     -0.93000361801135
  C           0.12709588543697     -0.13324486585893     -1.66784900522300
  C          -0.95727999268238      0.78754271725756     -1.44007692181480
  O          -1.41364054728582      0.51576987511976      0.01879510057303
  Br          2.57536161701620     -1.29124681268295     -0.78198388960120
  H           1.83917770610885      1.04920088342145     -1.18503807601295
  H          -0.13866834455992     -1.16783435570904     -1.83537922954767
  H          -1.86534698072831      0.59066632084264     -2.00118613640338
  H          -0.69110213184927      1.84421030074695     -1.47256663722114
  Cl         -0.41308995343129     -2.50790633257371      0.57611990304073
  Cl          0.18792134744502     -1.23911652827756      3.10894551975748
  Cl         -2.50923120720349     -1.19414275727717      2.07518930632684
