21
Coordinates from ORCA-job NEB_product E -45.554980636600
  C           1.55330276842256     -0.80280966537271      2.23285650914255
  C           2.73715701110221     -1.77850604500196      2.48019478987355
  C           1.43602804677024     -0.39287880971624      0.76959273853973
  H           1.84384965116719      0.11043349193450      2.76864616270490
  O           2.72573700636701     -2.92868808055656      1.82726430865621
  C           0.22122630008988     -1.27973118317220      2.86765025014978
  C          -0.39151824085469     -2.50526922424792      2.24866628175848
  C          -1.58596005460327     -2.51435283232332      1.68805393483118
  O           3.61265073606999     -1.47700267230232      3.23309531692703
  C           0.43716882331686     -1.54113981114385      4.36576359449968
  H          -0.48932939910957     -0.45093496532118      2.78493098307360
  H           0.16936174198936     -3.42249048405142      2.36514150740266
  H          -2.17404851410267     -1.61694718240599      1.58686742825470
  H          -2.01750365878074     -3.41677876869502      1.29218405901563
  Cl          0.96354950987592     -1.71781279220554     -0.33286812567771
  Cl          0.22640351675970      0.90546213593403      0.58205447014705
  Cl          3.01733991964606      0.23470255051921      0.21356596920684
  H           1.97864652465026     -3.02952815618478      1.21376392268242
  F           1.16604673826586     -2.68330434953190      4.55910121462415
  H          -0.52435667321233     -1.69626195295250      4.86569692939452
  H           0.98894824617016     -0.72676120320235      4.84517775479306
