20
Coordinates from ORCA-job NEB_reactant E -29.331361758100
  C           1.85586397432814      0.19861673222627      0.20452086514916
  C           1.31298081020566      1.34641745119936      0.59132212347988
  C           2.12832183609709     -1.07883636751694      0.94815455700892
  H           2.15031234155741      0.16713308391887     -0.83528913039825
  H           1.21452900324133      2.14780900858740     -0.13132859534086
  C           2.44214150982232      0.01511093398591      4.43631592704308
  C           2.02850503081535      1.01147957944066      3.67836053797959
  C           0.73372895018816      1.00546023224801      2.91908775204702
  O           0.78148880950318      1.80407333220016      1.75902371804365
  F           3.59204561188034      0.08242255260757      5.12649707625506
  H           1.92969764354076     -0.92273674909193      4.59940486598711
  H           2.62230023522569      1.90942539007243      3.58944164967999
  H          -0.03543935837424      1.48478767290938      3.53920816076047
  H           0.40738300835208     -0.01460944391294      2.69305014514158
  C           3.23114849735228     -1.88102221409367      0.26221285830598
  H           1.21869287570090     -1.68986803436561      0.97777799144896
  H           2.43135321784858     -0.87589972816240      1.97571879660027
  H           2.94479453348357     -2.13512582568663     -0.75601354884306
  H           3.42306491599939     -2.80348966004998      0.80568850544128
  H           4.15258655323203     -1.30434794651594      0.22744574421019
