16
Coordinates from ORCA-job NEB E -36.556051309360
  C           0.04992967985027     -1.42126136005917      0.27768417973268
  C          -0.92084008971491     -0.93371450803642      1.16391666886037
  Cl          1.67849553354281     -1.56658104404538      0.88895072964012
  H          -0.20957716270389     -2.23008531758578     -0.39757194684922
  I          -2.96029562015499     -1.36314079476404      0.57230654114448
  C           0.14728586647562      0.18824108161840     -0.85605934988161
  C           0.40821394566159      1.20669082055343      0.06445764175211
  C          -0.57083825647861      1.51312535366533      1.02808347725807
  O          -0.73169022083250      0.05931904323178      1.90359955773976
  N           1.20690428780773     -0.16749476497331     -1.79232066102822
  H          -0.82892898719479      0.08511320161251     -1.32139382351316
  H           1.44548745530978      1.44540882179296      0.25503376464190
  H          -1.60232355911316      1.59514759910254      0.69769228406583
  H          -0.30800685092933      2.21113760665417      1.81075012113101
  O           2.33516087918590      0.15171320051653     -1.51709262352361
  O           0.86102309928850     -0.77361893928352     -2.77803656117051
