16
Coordinates from ORCA-job NEB_product E -36.599522292380
  C           2.12422961888298      0.69774889011489     -2.01958534950650
  C           0.97884254776643     -0.00123275829919     -2.70890679201891
  Cl          1.64903303514820      0.76555675527276     -0.29031016908296
  H           3.04756583825025      0.11865751124355     -2.08473257514482
  I           1.16709973161566     -2.13552556743500     -2.65503765058881
  C           2.30442340241502      2.11509208470729     -2.55262363054492
  C           3.44942413243539      2.83642799356998     -1.90447621312623
  C           3.37543980185483      4.08799324631956     -1.49386860988502
  O           0.02770154575276      0.51856803970201     -3.17791520231874
  N           2.57932262686832      2.02249510883567     -4.03002713462974
  H           1.37958247588602      2.69301377733479     -2.44900649630124
  H           4.36282024136619      2.26561388767047     -1.81286318218597
  H           2.47291276801896      4.66802328743593     -1.58790643093848
  H           4.22006582558835      4.58153374679663     -1.04698443711134
  O           2.68402894965196      0.91367767764203     -4.49366741454308
  O           2.68070745849870      3.05715631908864     -4.62538871207321
