16
Coordinates from ORCA-job NEB_reactant E -36.586377921400
  C           2.10442973885001      0.07935608943603     -1.16627417593321
  C           1.05260025784385      0.85974685005588     -1.37480656359641
  Cl          3.74808867236452      0.59628800801929     -0.96540713294497
  H           1.98963168002495     -0.98938880743695     -1.11284477187006
  I          -0.83437483540196     -0.06160334911807     -1.59924270225049
  C           2.66098245173902      2.35131796405353     -3.71750981548515
  C           2.89564165681953      3.00038058236167     -2.58377411240586
  C           1.96775700263398      3.07298542904973     -1.41979661978860
  O           0.87069092869884      2.18238188260124     -1.48738813750867
  N           3.62921593288851      2.34956614331972     -4.77691911166976
  H           1.77227446026648      1.78408704513851     -3.94864078351076
  H           3.82729508583918      3.54226907497529     -2.47717979985989
  H           1.50796083599101      4.06885284264171     -1.39559815884479
  H           2.52464643438408      2.93534399951818     -0.48601393582722
  O           4.65767859127465      2.96873355876435     -4.61544677219329
  O           3.34088110578337      1.71798268661988     -5.76875740631086
