19
Coordinates from ORCA-job R E -28.528634988990
  C          -0.86392949986420     -0.20293558419032     -2.85833271852316
  C          -0.43646526402438     -2.91479989457098     -1.65095894562490
  C          -1.60718602441464     -2.34471970938725     -1.91404743737124
  C          -1.80407751466027     -0.96031655680073     -2.31012782622369
  C          -1.01919549192743      1.41249172215504      0.45667111989972
  C          -0.06187930551447      0.51647384083884      0.31514441513072
  H          -2.51901657685843     -2.91969314279466     -1.81188008567758
  H          -2.79644863220277     -0.56058811387208     -2.14937210762640
  I          -1.18382752330699      1.80573047978323     -3.38217795334551
  H          -0.37120042046620     -3.94830150206930     -1.35695601817995
  H           0.13276727597210     -0.54334592488578     -3.07418890315045
  H           0.49191964601543     -2.37261829927552     -1.70059918157534
  H          -1.97771342593745      1.15411305251683      0.87130278304258
  H          -0.20761036607660     -0.51755106580385      0.59644360397108
  H          -0.88157080141701      2.44201293003995      0.17019054602354
  C           1.29589777563352      0.82936112353771     -0.22632041163304
  F           1.75998465034191     -0.20979899664650     -1.00374577925402
  H           2.02477495253023      0.94871464990142      0.58582189267334
  H           1.29319654617765      1.72441099152396     -0.85601699255568
