19
Coordinates from ORCA-job TS E -28.511618165470
  C          -1.00838775098100      0.65423386928177     -1.52166869244765
  C           0.35413144553281     -1.51359723652211     -0.27922136068406
  C          -0.97268503783269     -1.55741249241147     -0.56207265717586
  C          -1.64911315258731     -0.49670560157096     -1.20255681354017
  C          -0.34802276872196      1.24957829876856      0.61235668586203
  C           0.41560464054080      0.26195386662835      1.14585228396041
  H          -1.58497177275025     -2.33603069442704     -0.12898263004977
  H          -2.72802865903322     -0.53920506067154     -1.24594661131765
  I          -2.06172409280477      2.30841635697258     -2.30043797384984
  H           0.81004039140316     -2.29445602740735      0.30586275729510
  H           0.04081070685934      0.70601754806885     -1.74334327311052
  H           1.03473695290168     -0.93523204716809     -0.87697458514364
  H          -1.38511463020241      1.34150908095694      0.87865021064935
  H          -0.00083902266416     -0.41999709573327      1.87068520089377
  H           0.11298447600185      2.11605073320374      0.16921588602336
  C           1.91028153931362      0.39948648783032      1.18733077632664
  F           2.53796046198236     -0.80226393154367      1.40575589322770
  H           2.20285545455474      1.04549609838804      2.02694178196919
  H           2.31948081848740      0.81215784735637      0.25855312111161
