22
Coordinates from ORCA-job NEB E -44.363875229300
  C           0.71359787068701      0.75583506653603     -0.31690165607498
  C          -0.37776510892993      1.60683296907342      0.14497845952898
  O           0.76249062544318      0.25650906433876     -1.58965298362983
  H           1.69914643736844      1.18109051856217     -0.10040432846268
  C          -0.00258197806226      2.63045087830462      1.04795240042064
  C           0.55583089405749     -0.58795819609287      0.79754749770548
  C          -0.79633164706560     -1.04459527711025      0.68433662667354
  C          -1.82060953280473     -0.15397724597931      1.07329423101013
  O          -1.59550287772850      1.16497201555655      0.09684291530432
  C           1.62110256848123     -1.61563377944484      0.49657556304831
  H           0.79095346878794     -0.10495907192670      1.75035018277533
  H          -1.02138481581286     -1.83249310371984     -0.02075757400171
  H          -1.72460259847111      0.32469413916341      2.04357517140842
  H          -2.83689721924758     -0.45483777487507      0.85196757686983
  C          -0.43810110051494      0.19986214462382     -2.33299523284406
  H          -0.16227161552578     -0.23473225516440     -3.29115421210535
  H          -0.84909840707170      1.20298915871616     -2.47542002258325
  H          -1.19089403946958     -0.42683245622194     -1.84819463063792
  N           0.32480926502919      3.50448493160724      1.71875354377208
  Br          1.55304971266178     -2.96714554222891      1.93116923674432
  Br          1.37732482316531     -2.54808426641955     -1.17915107083717
  Br          3.41773527502302     -0.85647191729850      0.51728830591558
