22
Coordinates from ORCA-job NEB_product E -44.387072610050
  C           2.62998931310588     -1.26767683176085      1.18376732454408
  C           1.59513908529240     -0.26291310336244      1.70120244329116
  O           2.88662956387008     -1.17393906395774     -0.18203117065872
  H           3.57702530982481     -0.94712503994928      1.65558326052083
  C           1.54491231285112      0.95309698583378      0.90846308305272
  C           2.29017625948814     -2.68535800603648      1.73052241310256
  C           1.06950232100118     -3.28040798060894      1.08462755132391
  C          -0.12493605088001     -3.26061546548483      1.64663478777408
  O           0.92861366577574     -0.42515168221525      2.68849929000729
  C           3.46815786905968     -3.63539868704952      1.60348201998870
  H           2.08693961554558     -2.54852461866566      2.80186586181366
  H           1.21945118845064     -3.74337812208135      0.11846638256730
  H          -0.29650287715961     -2.80826826313968      2.60931891737341
  H          -0.97976105966087     -3.69167876418608      1.15592215537540
  C           1.78815164234339     -1.23314043774363     -1.08127235427139
  H           1.83684981015726     -2.16436380728913     -1.65122102665316
  H           1.88283027064605     -0.39235210031618     -1.76967616646200
  H           0.82700973139898     -1.17068457751023     -0.56769929371942
  N           1.52036757173339      1.92492602152983      0.30609942370011
  Br          2.96902604150354     -5.37405475413832      2.36397284496210
  Br          4.02218426147715     -3.93157404648158     -0.23318236497997
  Br          5.02294415417549     -2.99181765538643      2.60825461734737
