22
Coordinates from ORCA-job NEB_reactant E -44.399375097250
  C           1.20092881216225     -0.53727679899048      0.08362526350793
  C           1.20675721150798      0.12125669029324      1.25750361220146
  O           0.98098145682867     -1.86685230473366     -0.08088596148946
  H           1.38630634604303      0.04022461560889     -0.81454156593370
  C           1.43421639493687      1.52005246506346      1.19682010708171
  C           2.40475283621606     -3.61196957247942      2.02797112468428
  C           2.28566431621264     -2.37839561651136      2.49089252030584
  C           0.96572114816853     -1.72102200281853      2.75227758750860
  O           1.00879570501189     -0.33109152688410      2.53676674320452
  C           3.66838311647217     -4.32272567272474      1.74918422351220
  H           1.52474617663610     -4.20567790455506      1.81120928705884
  H           3.14872988019545     -1.76182298200389      2.70727881933501
  H           0.72244115578624     -1.81703393491918      3.81743593147120
  H           0.17201133108173     -2.19320529005401      2.16316367266632
  C           1.16396707703391     -2.35077340742219     -1.39490887498882
  H           0.90439948470776     -3.40708204380851     -1.37126108780702
  H           2.20410683807555     -2.24237540347411     -1.71512871854468
  H           0.51149636683885     -1.82925423327478     -2.10070302517859
  N           1.62479763413716      2.64828065163005      1.13253547793316
  Br          3.69257401571450     -4.87801586327169     -0.14372629283244
  Br          5.27980710489511     -3.29222274926328      2.07613085108774
  Br          3.76101559133754     -5.96561711540665      2.84686030521588
