22
Coordinates from ORCA-job NEB_reactant E -44.007911318800
  C           1.91467263147722     -0.97209582024499      0.26254736166685
  C           0.98687849091848     -1.91891766855331      0.11145673904418
  C           2.95731483621789     -0.48310490332426     -0.68550487352555
  H           1.91834244815276     -0.46642364475088      1.22035921253071
  N           0.09810330442015     -2.17717960019212      1.25840059642486
  C           3.00981682790675     -4.27794657348746     -0.46108462528408
  C           2.79649840822009     -3.64396114598425     -1.60221448642373
  C           1.50961503030049     -2.96969998974487     -1.97692218251173
  O           0.63745288886893     -2.74418239662651     -0.88637357697047
  C           4.29753507477793     -4.94100698585198     -0.09812092478302
  H           2.24355872743642     -4.36299594332597      0.29620286890850
  H           3.56828108984045     -3.59927467458670     -2.35766605646839
  H           0.93378588647150     -3.62063825328816     -2.64411290192055
  H           1.71163527313163     -2.03195467584268     -2.50883960887146
  F           3.84693574791519      0.30994589680703     -0.01097398179934
  H           2.52695069529383      0.14612712728729     -1.47619825351390
  H           3.54187209116950     -1.29782992148447     -1.13048033176649
  O          -0.57939512440042     -3.17195031826559      1.20515658969247
  O           0.12034631874394     -1.38686636055422      2.17309687961956
  F           5.24590245020974     -4.78660254187826     -1.07587580888112
  H           4.15379399428485     -6.01924029862197      0.04255333167417
  H           4.71380290864267     -4.50960130748565      0.82089403315854
