19
Coordinates from ORCA-job NEB E -41.332218855440
  C           0.66424206775940     -0.99890094559528     -0.43533618223094
  C          -0.57366838327300     -1.24942443492281      0.15522251149997
  I           2.39945966933161     -1.59726297916434      0.61865828317473
  H           0.77658563819473     -1.18181445454047     -1.49594653708769
  C          -1.74982497142908     -1.35377426531589     -0.83103293524005
  C           0.70898570358156      1.06692737753352     -0.29759380785519
  C           0.44564041502394      1.17504496301106      1.08640900557488
  C          -0.78263701110949      0.85975592091241      1.61814455345258
  O          -0.82344931805564     -1.03070459739838      1.36421136443563
  N           1.91416937624273      1.46964256747896     -0.79138285260258
  H          -0.11412373443102      1.21366765445828     -0.98704379980397
  H           1.30273469652516      1.21852556101616      1.74507518002343
  H          -1.68120679742687      1.01047620065549      1.03873878773357
  H          -0.91662622360593      0.86923615853194      2.68675444657864
  F          -2.89021147506437     -1.68126714859070     -0.23282819462836
  F          -1.97545759881286     -0.18804752173589     -1.48586882507741
  F          -1.51656413128029     -2.26562355850815     -1.78996225842060
  H           2.71770814392443      1.33568472351307     -0.19443489930267
  H           2.09424393390500      1.32785877866102     -1.77178384022399
