19
Coordinates from ORCA-job NEB_product E -41.351695789950
  C           2.00442000326946      2.01023145178628     -0.87092213154219
  C           0.79117207724032      1.93273341496694     -1.74930469770725
  I           1.61679727758519      0.71206615138767      0.80729440275164
  H           2.88975447772902      1.61382420011343     -1.36823040047104
  C           1.07049835203529      1.18830604849703     -3.08713342946622
  C           2.22180097513560      3.46926558315969     -0.43850702140252
  C           3.44382283099020      3.60138763037102      0.42623990723957
  C           3.42140758727652      4.02153693760696      1.67696944492201
  O          -0.29237842881869      2.36461215827223     -1.50172162017108
  N           2.28615843772133      4.21902337434740     -1.68644989058537
  H           1.33246749984438      3.80746872574110      0.10413146705666
  H           4.37687695130616      3.34391265851796     -0.06031700878549
  H           2.49909090946676      4.27929273538795      2.17086769293822
  H           4.32060605794755      4.11760071651181      2.26034172655922
  F           0.01609339162150      1.15708064018939     -3.89054076739809
  F           2.08101193393437      1.76842699078117     -3.75529122999475
  F           1.44854231293990     -0.07941702920834     -2.85305803919365
  H           3.15436724887234      4.03622578248857     -2.17941252124077
  H           2.22469010390282      5.21472182908173     -1.51395588350891
