23
Coordinates from ORCA-job NEB_product E -36.732162998190
  C           2.75981139077571     -1.36239401417271     -0.41969559715712
  C           3.12613488621908     -0.71722379142964      0.89547293814038
  C           1.49390710046704     -0.70518582756353     -0.98200096518810
  H           3.56888528032822     -1.13752009015551     -1.12543018467653
  H           3.95364654769418     -1.22159842964470      1.42251996226442
  C           2.60926696094152     -2.90004661622251     -0.31588637870822
  C           2.21524657353087     -3.45069713850877     -1.65894971422991
  C           1.13207358953610     -4.17337363992682     -1.86627751604088
  O           2.60796106947936      0.26134519157930      1.35183822571294
  C           3.87535445992738     -3.61396701435997      0.19489121336502
  H           1.80089732603368     -3.11069516322234      0.39261243263971
  H           2.88483231968073     -3.22102751875633     -2.47623999972464
  H           0.43907041329262     -4.39805273209244     -1.07230086555184
  H           0.88562693095787     -4.55977348007844     -2.83997220310868
  F           1.45722156521877     -0.79039451795243     -2.33481146159959
  F           0.36907358836432     -1.30584903924882     -0.53357609637354
  H           1.43294076445650      0.36077080325163     -0.71164786810389
  C           5.15896745521692     -3.27746023679710     -0.55685592514668
  H           3.68722849540526     -4.68627744416411      0.10456471984797
  H           4.01270961685557     -3.40316592794546      1.25715972790308
  H           5.04547048310306     -3.45362525767358     -1.62292048698446
  H           5.96619337644167     -3.91159355517377     -0.19755305894665
  H           5.45617980607360     -2.24259455974193     -0.40274089833283
