16
Coordinates from ORCA-job NEB E -30.645721304890
  C           0.13097861547214     -1.19252570880927      0.63923675589968
  C          -1.12303687376329     -0.95578948498487      0.06091282891617
  N           0.41498201059365     -0.70213628714526      1.89421372504698
  H           0.61539294300595     -2.13515591272911      0.40911341606709
  F          -1.40083367215503     -1.78794359208193     -1.01064936398073
  C           1.06887110799911      0.08239619823354     -0.69746196587463
  C           0.37854918953511      1.27122934439867     -0.53813762879339
  C          -0.95834836200486      1.33291047822477     -0.95490003895119
  O          -1.73491148913602      0.13377148407463      0.09330486734368
  F           2.32038245071255      0.00024303657777     -0.18777602488175
  H           0.96870399506593     -0.54329796905874     -1.57623410530499
  H           0.73119137603051      1.95651339623065      0.21986075318803
  H          -1.22667966633430      0.86581402818074     -1.89318802501842
  H          -1.53010041202056      2.21654534325325     -0.71784500291139
  H           1.39116828306592     -0.71430292884644      2.14983464251688
  H          -0.04630949606680      0.17172857448160      2.10971516673798
