16
Coordinates from ORCA-job NEB_reactant E -30.665237714210
  C           1.76726573707921      0.08400721810152      0.24629373925747
  C           2.06607125759597      0.37241277502163     -1.01865861604100
  N           0.69352174651022      0.62953044939773      0.93203810375948
  H           2.41440357174122     -0.57391285925862      0.80350726422273
  F           3.22107232407925     -0.12379291475899     -1.55696157514794
  C           2.78440815017606      2.50378794574531     -4.54498167808363
  C           2.96675099654089      2.25113681007169     -3.26330374712685
  C           1.86504818739242      2.38364777852123     -2.25845221800840
  O           1.31945401714027      1.11467682984038     -1.86397866299908
  F           3.77046445504191      2.37281273179397     -5.44206411565634
  H           1.86780553931892      2.85252256819120     -5.00001296395697
  H           3.92217452210906      1.88830161760992     -2.91463626136256
  H           1.01645341949646      2.92056402681068     -2.68789792862768
  H           2.22492049448172      2.91328939610245     -1.36721551682994
  H           0.26334374480951      0.00765059496935      1.59980559566185
  H           0.02064183648691      1.07666503184053      0.32461858093888
