16
Coordinates from ORCA-job NEB_product E -30.677123042460
  C           2.80111013821893      0.64480517571958     -1.37777579351242
  C           1.63532130095901     -0.24773069966007     -1.75979547143458
  N           2.76314157813844      1.17184057524470     -0.03575661521466
  H           3.71015794479651      0.03139231817389     -1.47530734035314
  F           1.00028670256208     -0.71703854702499     -0.64644809403247
  C           2.91493089183078      1.77636879697999     -2.43335291828504
  C           1.96484818647555      2.90214947085822     -2.15325089653059
  C           0.73940331599242      2.95690103881982     -2.63909727172291
  O           1.23777377189716     -0.56119980253740     -2.82486180329272
  F           4.20783862326576      2.24552552873757     -2.42328342634066
  H           2.74912642702840      1.34519002790672     -3.42918013704566
  H           2.36285888583301      3.66951824967828     -1.50548494600830
  H           0.35074375835621      2.19111491171615     -3.29054225307919
  H           0.07536326545954      3.77000091704772     -2.40319282731125
  H           2.83562423370959      0.43621099994388      0.65617054518339
  H           1.91127097547660      1.69495103839594      0.13275924898022
