26
Coordinates from ORCA-job NEB E -54.238689826050
  C           0.13613960744732     -0.72628993036226     -0.23669834475849
  C          -1.03857687359689      0.07209111989176     -0.29178961585243
  C           0.02464568063131     -2.07480909975153      0.43697818951694
  H           0.63982897601851     -0.84556168970123     -1.19462977622672
  C          -1.30664927348062      0.89276488938994     -1.52266506163190
  C           1.22528834388529      0.50381458612542      0.73444499154527
  C           0.50332548408263      0.76733809136735      1.91132598946106
  C          -0.80467674921130      1.31736506126406      1.77416128289967
  O          -1.65579250219903      0.35350356675727      0.81528604983614
  C           2.66875079323072      0.11058148840393      0.87498824590420
  H           1.16322671687389      1.27205714195886     -0.03965338855092
  H           0.75371900554512      0.24118079204761      2.81829444894321
  H          -0.87379633717113      2.24509187418921      1.20923969261072
  H          -1.39405986163964      1.34907562010788      2.68295174786083
  Cl         -0.40376119756490     -2.05914784711379      2.14534147551229
  Cl         -1.29638693448800     -2.96595871633710     -0.42573647795251
  Cl          1.48820686665166     -3.06031179421839      0.20974250011108
  C          -1.79086796092465      0.02193430693364     -2.68350869696354
  H          -0.39007709644804      1.41145161694744     -1.82656943404859
  H          -2.06675762219949      1.63765956441059     -1.28282341377305
  H          -1.04378939542509     -0.72100249120901     -2.95011746173499
  H          -1.98921966848944      0.64127027013040     -3.55401674374425
  H          -2.70638185323127     -0.49451683073222     -2.40842281872190
  Br          3.65582982090906      1.78141257285500      1.29298790954700
  Br          3.07155269181782     -1.12761801315232      2.30497362829192
  Br          3.43027933897615     -0.54337615020252     -0.79408491808104
