26
Coordinates from ORCA-job NEB_product E -54.282717555600
  C           2.90971004671992      1.39090249066580      0.66759121537279
  C           1.46797966724779      1.77155724401062      0.22105694244306
  C           2.88206418680189     -0.06159579519901      1.14205289728574
  H           3.56186853314452      1.39988677197212     -0.21309785707669
  C           1.38040189863459      2.24532378102996     -1.20387560776471
  C           3.35917233434951      2.54659668821178      1.60141338384238
  C           2.44348866569600      2.80979970254018      2.76691064820740
  C           1.72278382513213      3.91030497464217      2.87099097211673
  O           0.54519721301294      1.71434209874688      0.98073549026760
  C           4.80466822221345      2.51273576548205      2.09919392809665
  H           3.31095299239391      3.43072954298542      0.94561238854394
  H           2.41902846561528      2.06346941738341      3.54429702293577
  H           1.72712175221538      4.67814113691944      2.11399935019145
  H           1.08845231422546      4.08285114927899      3.72155006639885
  Cl          2.10643886493847     -0.33502818329427      2.70004718504287
  Cl          1.94021889966546     -0.98089327771139     -0.09564690323493
  Cl          4.50727804948543     -0.79689889210057      1.15347253011294
  C          -0.03006682405765      2.68385002765435     -1.57288316157045
  H           1.70972657741095      1.42889794966622     -1.85138760714698
  H           2.08938107880844      3.06722105770287     -1.33759619670487
  H          -0.72252992054848      1.85616334889358     -1.44762342543828
  H          -0.06429668695514      3.01923020158735     -2.60546896573140
  H          -0.35446343625509      3.49522715968739     -0.92666575024441
  Br          5.23816602328799      4.31009765370695      2.77209674485984
  Br          5.14675366363529      1.29221950336779      3.56570492500382
  Br          6.06890359318160      2.15736848216993      0.65301978419090
