18
Coordinates from ORCA-job NEB_product E -34.007296764850
  C           3.11136528555548      1.16767071400317      0.63560407307256
  C           1.88769213803689      1.67950865298243     -0.07962992529052
  C           2.92782562786138     -0.25412284789375      0.86386330269558
  H           3.97913279735539      1.28246623242343     -0.02794706719618
  I           1.68299320302194      0.82782785560531     -2.06347044133806
  C           3.33820251819501      1.93956766047978      1.95976748786063
  C           2.36068806552968      1.50236504665665      3.01655590383231
  C           1.43273791115512      2.28961996194540      3.52358685113758
  O           1.09253458907821      2.45462874951563      0.31567573921892
  C           4.77934798435479      1.74775500686384      2.44237966987354
  H           3.20093407614756      3.00696749922121      1.75427841301134
  H           2.47328352333657      0.47879502921922      3.34718691234421
  H           1.30757487721541      3.30853440157709      3.19568609672266
  H           0.75132364044524      1.94229292720117      4.28007001879148
  N           2.75951593856843     -1.36739286968862      1.04534059797023
  F           5.06362224653507      0.42330952816028      2.63753125518554
  H           4.92821120368455      2.25265100582593      3.40217191062396
  H           5.50281437392328      2.12085544590183      1.70784920148421
