19
Coordinates from ORCA-job NEB E -40.269724577900
  C           0.19555782047082     -0.97508174289957      0.04913202785652
  C          -1.06709575346799     -0.97820002639005     -0.70868252850162
  F          -0.07950878162829     -1.17771926909834      1.39248340291776
  H           0.86034611817399     -1.79087227117018     -0.25319963609474
  N          -1.30371314020211     -1.86457264710419     -1.71058021604541
  C           0.87096504857208      0.42366084267391     -0.11975989381065
  C          -0.16571461085042      1.45103320800565      0.02601136180232
  C          -1.58531380327789      1.06071418239935      0.26075220064264
  O          -2.00676660870826     -0.07596726567724     -0.47215122791822
  C           2.05738957423702      0.66103944110280      0.85860318967378
  H           1.35640518145660      0.39309722665252     -1.11076964643739
  H           0.10999116548143      2.37495366374321      0.51093187388079
  H          -2.25900240189699      1.86209064514811     -0.05464462722805
  H          -1.77727749766462      0.86829153415011      1.32863910476690
  H          -2.22673967862909     -1.83116168247188     -2.11572556347864
  H          -0.85882977265804     -2.76752991112755     -1.67405760427388
  Br          3.06873740307776      2.23085235800458      0.24833981570370
  Br          1.48286353028222      1.00492289263311      2.69207448894982
  Br          3.32770620723178     -0.86955117857434      0.85260347759437
