19
Coordinates from ORCA-job NEB_product E -40.349023515130
  C           3.28980149343656      1.69280786401326     -0.98036097351310
  C           1.89566204056151      1.75853029663546     -1.63650445299493
  F           3.43868593047408      0.51211025578419     -0.29086264270121
  H           4.04590653220557      1.68880136274830     -1.77831452634046
  N           1.23604973533240      0.59267405091043     -1.65074976147232
  C           3.45229992880033      2.91054327859750     -0.06016963303374
  C           2.59274183470039      2.74504485952265      1.16435826045651
  C           1.58867142831871      3.54950030421394      1.45411455154992
  O           1.47989568925895      2.79297392600028     -2.10085987124383
  C           4.89558576573866      3.18711061138423      0.33483757309432
  H           3.09485236151234      3.77132320406189     -0.64299248391076
  H           2.84231024462117      1.90332201888469      1.79681047678084
  H           1.32767387052415      4.38444276599053      0.82510177034037
  H           0.98669619365692      3.39987154426011      2.33304427905179
  H           0.31758721312940      0.56016673137840     -2.06127048162903
  H           1.61389746956589     -0.23584702180580     -1.22374642485569
  Br          4.96169434026685      4.80286418764655      1.43492762916632
  Br          5.70508484762153      1.74298678942542      1.35428611182036
  Br          6.01460308027459      3.51467297034796     -1.24074940056536
