20
Coordinates from ORCA-job P E -29.830795538760
  C          -1.39344136921862      0.43769719658136     -2.35741046329918
  C          -0.09944717482071     -1.63080365777171     -1.14311861683371
  C          -1.48234568425190     -1.87447020522648     -1.65525512404191
  C          -2.12108392234929     -0.87580242013166     -2.24228189359390
  C          -0.79021561669082      0.83238341718912     -0.98971277435185
  C          -0.06966602894543     -0.34151711421680     -0.29968001462496
  H          -1.92834384272206     -2.84745995932053     -1.52730680332189
  H          -3.12338200688895     -0.95055404460176     -2.63191755720972
  C          -2.26513654432559      1.48619115424969     -2.82789957429422
  H           0.25713621117158     -2.46488900397773     -0.54010609715868
  H          -0.57647919657273      0.32905526330815     -3.08542000989166
  H           0.58550362258209     -1.51449827272964     -1.99039273061836
  H          -1.60179916958917      1.18889548358948     -0.35327956060165
  H          -0.57101033026446     -0.56105184573479      0.64800044087499
  H          -0.10001706791278      1.66558379583134     -1.13880984025346
  C           1.37315001229284      0.04070782246645      0.02436647400606
  N          -2.97048532213155      2.31045641137977     -3.18786826267755
  F           1.98424119357554     -0.95819337512723      0.74143490520055
  H           1.41794666998586      0.94215024227632      0.64467282151841
  H           1.96738556707615      0.18203911196664     -0.88535531882730
