20
Coordinates from ORCA-job R E -29.742649481030
  C          -0.95139431295652     -0.22180160915286     -2.83595027566410
  C          -0.47004693199099     -3.03980389240471     -1.90457071194773
  C          -1.63249932445180     -2.39342840698152     -1.87000587886864
  C          -1.79971318322128     -0.97821112334028     -2.12262712826078
  C          -1.15912138349381      1.50828084606147      0.47110439197545
  C          -0.18443058588051      0.62278937620223      0.39743857074609
  H          -2.53720392092329     -2.92599564614519     -1.60508826964498
  H          -2.68881763145828     -0.51918617074744     -1.70804480828697
  C          -1.13559743829185      1.15739557684612     -3.00198788193745
  H          -0.41023912914818     -4.09356423861733     -1.69557319465666
  H          -0.06579194390891     -0.63573521769159     -3.29744115173263
  H           0.45862451951044     -2.53351275425353     -2.10615442246530
  H          -2.06718676153331      1.30591938210634      1.01229900232000
  H          -0.26375141420053     -0.34673712489057      0.86981710627583
  H          -1.08820896793645      2.47071432794098     -0.00730661573928
  C           1.10551920472759      0.86869723138504     -0.31593069496017
  N          -1.25308767342627      2.29411108601637     -3.11960290144774
  F           1.50370966122624     -0.25695563841438     -1.00653929429741
  H           1.91247409477858      1.08816528423079      0.39516938261777
  H           1.02242312257910      1.67835871185007     -1.04678522402529
