20
Coordinates from ORCA-job TS E -29.726576141320
  C          -0.91701830885244      0.56451453522511     -1.42109932001985
  C           0.39783331503567     -1.63587604673494     -0.16770760772648
  C          -0.93579746023976     -1.65131339865571     -0.43459822594581
  C          -1.58757265237738     -0.57529216621306     -1.06345107548883
  C          -0.20332791671660      1.16129214360766      0.71730597557432
  C           0.54153786211555      0.15141818381007      1.23558559172179
  H          -1.55884059463673     -2.41282179019842      0.01357350835316
  H          -2.66882722245473     -0.57162473162914     -1.08851337368070
  C          -1.60807601388483      1.69969582345393     -1.87632274725033
  H           0.84281268895111     -2.42115455702904      0.41992823260285
  H           0.14011248532791      0.55613194920244     -1.63870773464409
  H           1.08443158107670     -1.08369462239834     -0.78391718048970
  H          -1.23678137702274      1.27644025772823      0.98848268744667
  H           0.11950928451125     -0.51486590602068      1.97188757590433
  H           0.26698968889712      2.01146798109222      0.25297568134606
  C           2.04086279840123      0.24584225104199      1.24738041364074
  N          -2.16519264823389      2.64296428785820     -2.21978213438897
  F           2.63552782520801     -0.97207807268461      1.46660037538290
  H           2.36787703957202      0.89205249611040      2.07378506029284
  H           2.44393962532254      0.63690138243366      0.30659429736911
