28
Coordinates from ORCA-job NEB E -41.895493136300
  C           0.25880080239312      0.48640277096998      0.69736599901293
  C          -0.97335429460808      0.53004276425885      1.53210999882836
  C           0.27396606533576      1.68043332897292     -0.25999667972452
  H           1.13231894496161      0.53196072732346      1.35649432563314
  N          -0.86349730304569     -0.33589870063814      2.81758143962701
  C           0.26742869534682     -0.92903060235980      0.03349270449401
  C          -1.07039824855154     -1.23515062494076     -0.57761808803893
  C          -1.80024265191419     -2.28410487548892     -0.24905163581450
  O          -2.01324563961273      1.06774149278898      1.35681891363011
  C           1.43194451276904     -1.10877427449091     -0.96505265292883
  H           0.44010630993846     -1.64191701566655      0.84726070124476
  H          -1.43020255971329     -0.53225039999883     -1.31450529813903
  H          -1.47247560911589     -2.99956156297205      0.48825602021081
  H          -2.75876392012251     -2.47418626615698     -0.69959420495993
  C           0.37331526382005      3.01426526585592      0.49663585239853
  H          -0.63562366575626      1.66508486111175     -0.85994110140461
  H           1.12574957804239      1.58000986059103     -0.92942801594232
  H           0.35740716136587      2.86197711707600      1.57340102744030
  H          -0.45826994898100      3.66642184600882      0.24739326861862
  H           1.29486574397905      3.53520923866553      0.25104626504855
  O          -1.90350515452715     -0.59347109126928      3.36100403643433
  O           0.24278555063771     -0.67857884518403      3.16725142848582
  C           1.09370378666497     -0.83944212352036     -2.42794787014310
  H           1.76751286438589     -2.14512954538012     -0.89085281130492
  H           2.26700330937001     -0.47828493298018     -0.65433391383811
  H           0.34094619717530     -1.54110773090770     -2.77832346317140
  H           1.98767775090969     -0.97184601356344     -3.03352256582570
  H           0.72404645885259      0.16918533189482     -2.58594367987139
