25
Coordinates from ORCA-job NEB_reactant E -49.097450720560
  C           1.88768238683155     -0.14626257197549      0.23013408158103
  C           2.00182743713430      1.11864293304885     -0.20318782777842
  C           1.24768532624243     -0.49990603000938      1.51996670225837
  H           2.27482994930989     -0.96249249052796     -0.35109575961206
  O           2.69169015157672      1.34428294896120     -1.33866126895002
  C           4.41284901046394      2.32510596516555      1.87485555069532
  C           3.14025820557334      2.66235969319694      2.06670613649105
  C           2.29137028737712      3.18007409917991      0.95334193207333
  O           1.41913626720333      2.14670867624090      0.43706026938032
  O           5.28382561807883      1.80075811222355      2.75183451931147
  H           4.90243557285621      2.48157550581437      0.92058093047791
  H           2.63632623440939      2.48792619169554      3.00238221293399
  H           2.91573366962835      3.58706634806749      0.15181896383557
  H           1.59361716952361      3.94331869518364      1.30170717630997
  F           1.97049336124447     -0.12964625228741      2.60534715400694
  F           0.03350032681838      0.04406770745946      1.70383039230998
  F           1.08587042289215     -1.82711294063963      1.63611725593213
  C           2.33736718570879      2.46145738389362     -2.14427690078983
  H           2.19522112807188      2.09014602923905     -3.16002642461402
  H           3.15008587603982      3.19186342886314     -2.14147416422312
  H           1.41563285520426      2.92895390234841     -1.79515911064218
  C           4.80372754005704      1.48327047889576      4.04181568969381
  H           5.64098947230128      1.03040344287286      4.56907994472810
  H           3.97287623863971      0.77566384048543      3.98712926278181
  H           4.48006830681321      2.38397490260418      4.57157328180854
