18
Coordinates from ORCA-job NEB E -36.687273499150
  C           0.01890487445463     -1.34618774189838     -0.53211476115217
  C          -1.16487722570181     -0.93021265306957     -1.18326511153857
  O          -0.06166679375152     -1.93432143871848      0.68215855794627
  H           0.82362378005024     -1.76992150285920     -1.12366957564452
  H          -1.11294784542604     -0.69042918902361     -2.24809019525236
  C           0.62282558115942      0.48292499089408     -0.12819771358769
  C          -0.43073298480910      0.95988462719813      0.67160584619640
  C          -1.68031130521364      1.17448624104398      0.08179304204378
  O          -2.09974317313772     -0.44553313630047     -0.46143725852430
  C           1.98310692153425      0.36413795658196      0.48128106389942
  H           0.68582376496396      0.86904836408111     -1.14345332509835
  H          -0.38645874997898      0.77916070050430      1.73761241181335
  H          -1.72080901306879      1.65244247239678     -0.88835350503108
  H          -2.51460734186151      1.40950791351819      0.72531960893954
  H          -0.92569457866595     -1.72422039477116      1.07357390018431
  Br          2.69090455696215      2.20269526143524      0.75017523463532
  Br          2.02222333314201     -0.51706228241224      2.20417455253129
  Br          3.25043619934841     -0.53640018860067     -0.69911277236062
