18
Coordinates from ORCA-job NEB_product E -36.723460178420
  C           3.28946501137407      1.24160341075040      0.34038766191247
  C           1.85103131304627      1.19293342386654     -0.13394593025873
  O           3.68132117774111      0.00721863770320      0.84365656527325
  H           3.92073858805021      1.50372203805658     -0.52642546017154
  H           1.46593922219599      2.13080650782273     -0.56408676312561
  C           3.40047723795581      2.37253548043911      1.39868803387367
  C           2.47110644587020      2.08964860556052      2.54574889204562
  C           1.58079462947243      2.95449265354067      2.99258838718945
  O           1.19049231678037      0.19892660884002     -0.03500337127589
  C           4.82650602131447      2.53827000505341      1.90772485736082
  H           3.11999790015873      3.31657817392470      0.91334351252822
  H           2.58274034968735      1.11353314403629      2.99734974505889
  H           1.46455363632789      3.93479517965319      2.55946113231894
  H           0.93384184244160      2.71604374845564      3.81788473358947
  H           2.91231545219067     -0.58737629986348      0.81268639349702
  Br          4.88825480426314      4.10051379101763      3.09261692124150
  Br          5.48800246321602      1.02384195071162      2.90945730644238
  Br          6.06682158791367      2.89691294043120      0.43866738250006
