23
Coordinates from ORCA-job NEB E -39.985903788950
  C          -0.62302270993797      0.06368466787766     -0.11378342777845
  C           0.38836681843876      0.10136449066326      0.87573019389563
  I          -1.03648785677746     -2.17706858316212     -0.67522520087532
  H          -1.60747333199286      0.35134039906771      0.23899943499507
  C           0.12191079879166      0.29818808852696      2.33009267374189
  C          -0.18467472521115      0.86591170993324     -1.38148534590434
  C           1.16538160497412      0.40796087423519     -1.79882055814604
  C           1.95588542102478     -0.35055387727588     -0.80181533034095
  O           1.66503296002998     -0.13684651384550      0.54881318651290
  C          -1.18601157838047      0.85975193395034     -2.54423864375350
  H          -0.18577965181985      1.91693871212203     -1.04555309122917
  H           1.25557184538659      0.02392302004807     -2.80489170624905
  H           3.03248646071128     -0.18508470994240     -0.90765814339856
  H           1.77039905605575     -1.42542616978500     -0.99817060201159
  C          -0.49493379180855     -0.94946124887526      2.97517347037419
  H          -0.55944070801513      1.14254686156339      2.46362124356165
  H           1.06984585330572      0.52912959998472      2.81755017241127
  H          -1.45473777372370     -1.18322362699456      2.52258782076306
  H          -0.64590626024985     -0.77797264926667      4.03749919211213
  H           0.16381312805709     -1.80469578427426      2.85013131628498
  F          -1.21238701619760     -0.30063840544525     -3.23109166401303
  F          -2.44713314919142      1.07219559424794     -2.09144146734570
  H          -0.95070539346972      1.65803561664640     -3.26602352360709
