23
Coordinates from ORCA-job NEB_reactant E -40.036222817580
  C           0.26986999366591     -0.11572715619508     -1.14839831152675
  C           1.51465881728837     -0.56281746749924     -1.28141815747006
  I          -0.38164165988011      1.58911822110326     -2.18659835325775
  H          -0.45688255844056     -0.55974692748153     -0.49692764023647
  C           1.96524701757329     -1.80123943419528     -0.55103637349374
  C           1.84761622391095     -1.17210283748018     -4.47428583718332
  C           3.05756630208156     -1.19243351720538     -3.94154244191679
  C           3.45218427603466     -0.43774769892419     -2.70609161527875
  O           2.37552565416806      0.17409205234360     -2.04095310913944
  C           1.46420624275018     -1.94479245167758     -5.69650533063116
  H           1.03609027349339     -0.60608266701049     -4.04329596827792
  H           3.85551986512932     -1.76186922701827     -4.39842125245112
  H           4.11210774256428      0.38984087818029     -2.99257497366911
  H           4.02115269829403     -1.10113693417371     -2.04172491249463
  C           1.75106238044408     -3.07777663277321     -1.36778935029393
  H           1.38777784073668     -1.87523133247622      0.37186711148891
  H           3.01702502581310     -1.70328312104280     -0.27346602629035
  H           0.70682507394512     -3.16687714178076     -1.65690656726541
  H           2.02007272562581     -3.94620582720121     -0.77140139674550
  H           2.35402602325663     -3.08138039127561     -2.27193878167522
  F           2.50221467826180     -2.64764403567601     -6.21033549825427
  F           0.50353450364694     -2.86203291135990     -5.39533393187312
  H           1.06124085963648     -1.30362343918051     -6.49822128206408
