27
Coordinates from ORCA-job R E -40.651430174340
  C          -1.14657195102379     -0.33981155800821     -2.75069443759327
  C           0.60237349845562     -2.76654192637587     -2.37338704610835
  C          -0.72497860277947     -2.73376809202227     -2.29413532061181
  C          -1.50793512386429     -1.51632316004514     -2.22443215443197
  C          -0.08615239674159      2.71760551031828     -0.62554900366520
  C          -0.25534853510558      1.62037038462152      0.10414704430563
  H          -1.28884074173828     -3.65716475549690     -2.23257787152082
  H          -2.46610473562148     -1.58959450771451     -1.72519599908403
  C          -1.94195398300060      0.88460548145483     -2.62122757725298
  H           1.14025645063274     -3.70054516935064     -2.40150244510365
  H          -0.23192447754483     -0.22378135866004     -3.31142884675551
  H           1.19023390774238     -1.86372712620065     -2.37842549337342
  H          -0.63800433845510      3.62520198020760     -0.44839141504952
  H          -0.97563083631145      1.58190431519882      0.91022123354321
  H           0.62434437523163      2.72862501319261     -1.43572850421656
  C           0.50889843744433      0.38418460157226     -0.15643022925578
  O          -1.73031385281698      1.91072663207148     -3.22137880978886
  O          -2.95175021069803      0.76070327173365     -1.73166951609232
  C          -3.76477704123846      1.91011979917543     -1.56497250860416
  H          -4.53810118784136      1.63677740440356     -0.85145986607012
  H          -4.20895467917200      2.20440681403928     -2.51820134442336
  H          -3.16768735045410      2.74275707921730     -1.18599759036924
  O           1.37121400623006      0.29905452972732     -1.00081236881483
  C           0.12295287433072     -0.76950782449070      0.73696510504738
  H          -0.94350691358412     -0.96101267273444      0.64222220985778
  H           0.33279710061415     -0.50350255157131      1.77158453379222
  H           0.68122630730988     -1.66362211426325      0.46803822163953
