27
Coordinates from ORCA-job TS E -40.640016780730
  C          -0.52897081875488      0.15731820281435     -1.20001537628133
  C           0.88647655553296     -2.13938699285735     -0.18250066161491
  C          -0.45598219356277     -2.12121089553740     -0.33948071856765
  C          -1.15573970602844     -1.01023983958243     -0.86187114532614
  C           0.17872523539492      0.79186301051388      0.80059210162542
  C           0.92351328668654     -0.19910708917853      1.36532290410811
  H          -1.05015683971407     -2.91829022577556      0.08760513093188
  H          -2.23529982345971     -1.02325658328852     -0.81440056631339
  C          -1.28652924183295      1.34599394657810     -1.63924294869611
  H           1.36434499506466     -2.95663134056561      0.33200793327473
  H           0.50687001035139      0.17075838242859     -1.50297400454658
  H           1.53714530457520     -1.49057209748141     -0.73801259033315
  H          -0.83059365221116      0.97401197222234      1.12874550029490
  H           0.48767466909027     -0.87473877418286      2.08513342118219
  H           0.69178670370303      1.60401652803213      0.31112634035584
  C           2.38626326010430     -0.20917366768789      1.21687200758102
  O          -0.82323115224103      2.24633643956441     -2.29412361781942
  O          -2.56282913518590      1.33379259782250     -1.21134022839056
  C          -3.35175763526516      2.44805827429721     -1.59835583070235
  H          -4.33929742676853      2.28459523150180     -1.17452359792032
  H          -3.40703885374800      2.51504922670774     -2.68684087144558
  H          -2.91654936302257      3.37299125918434     -1.21395266088481
  O           2.96476498517789      0.42616400086352      0.36144223403915
  C           3.12238090079787     -1.03682192017854      2.24577795748530
  H           2.71246001951170     -2.04167617063228      2.29857053519938
  H           3.00112130954261     -0.57034632249056      3.22217061073573
  H           4.18044860626183     -1.07949715309197      2.00226814202866
