18
Coordinates from ORCA-job NEB E -41.975163663820
  C          -0.17507652022044     -1.23828768162410      0.60587497957494
  C          -1.32912079439450     -1.30658222593823     -0.19946597672481
  O          -0.34782460438650     -0.76383677814234      1.86477551959257
  H           0.56436641770349     -2.02773159680093      0.48492559935064
  I          -1.10425308693307     -2.56394002594117     -1.95423699979438
  C           0.62153224768585      0.30164868617645     -0.37273450196117
  C          -0.38379356916354      1.26653776660494     -0.27016640915471
  C          -1.59078565448457      1.04224511674977     -0.95894620080016
  O          -2.18241198981636     -0.39297427176748     -0.24683701794249
  C           1.91531096453124      0.54285062877146      0.35537188685930
  H           0.80079886187520     -0.17886252251162     -1.32995926033598
  H          -0.39324832292577      1.90476489655615      0.60149254080013
  H          -1.53216001706744      0.68371812958660     -1.98217949451237
  H          -2.40749460639107      1.72729940386886     -0.78247764512383
  H           0.45339406470609     -0.85729436313048      2.39388469492510
  F           2.72552438187220      1.35769901287410     -0.33476788428292
  F           1.75522817772175      1.09592192234182      1.56629003024273
  F           2.61001404968743     -0.59317609767379      0.55915613928744
