18
Coordinates from ORCA-job NEB_reactant E -41.998481596220
  C           2.02467740591936      0.43535264437148      0.32256766928251
  C           1.44589108755005      0.91403365274233     -0.77428518114437
  O           2.38176473503945      1.20601182296572      1.40448143277901
  H           2.21507144947029     -0.62481755839063      0.38995337553528
  I           0.90750491125533     -0.43308340591905     -2.30145044468073
  C           4.01387193502501      3.60727164132088      0.32687172550244
  C           3.16265724493938      3.29829372924485     -0.63621696895632
  C           1.67844805243909      3.25402769635833     -0.44968482358661
  O           1.09271077512385      2.16762075520661     -1.14210302705926
  C           5.49555938826292      3.62124099371613      0.13340021014757
  H           3.70122897517202      3.85127614200179      1.33051604856725
  H           3.51345602828888      3.04304003887649     -1.62831336492993
  H           1.22566531691145      4.13898264484818     -0.91021003414623
  H           1.42117768526122      3.22477196520055      0.61353117539690
  H           2.94129028075331      0.68956232794020      1.99250948673554
  F           5.87526454615919      3.39589374564134     -1.12996094154131
  F           6.04355362452011      4.79227336142983      0.49898246924147
  F           6.09710655790913      2.67764780244495      0.88591119285679
