18
Coordinates from ORCA-job NEB_product E -42.014044884140
  C           3.01508805530981      1.21813404010111     -0.67101890510616
  C           1.52958251922584      1.11602215449317     -0.94477939871351
  O           3.28547220608904      0.29653566264420      0.33739168152758
  H           3.55924610747654      0.98179478726611     -1.60122450285575
  I           0.98896924482647      2.07816165491674     -2.81400755560795
  C           3.32412422299913      2.69038648005308     -0.27299512735559
  C           2.62388826442276      3.06147932537856      1.00579854907781
  C           1.80985578055128      4.09351829030197      1.10882969075744
  O           0.70268658796241      0.60782312862449     -0.28692890419810
  C           4.83058055479512      2.88353213428165     -0.12237553142034
  H           3.02082993818727      3.35887951067954     -1.08601381733928
  H           2.81996879946228      2.40567301162442      1.84214811381372
  H           1.60513693269997      4.74801126005221      0.27720941993770
  H           1.31714272350781      4.32661609132420      2.03571106892459
  H           4.22508189987833      0.28491841312997      0.55584924574887
  F           5.36130927815055      2.15318884905516      0.87265643273997
  F           5.49450952429108      2.52692861252702     -1.23486927543499
  F           5.14292736016430      4.15689659354641      0.12371881550398
