21
Coordinates from ORCA-job NEB_reactant E -38.076727072990
  C           1.88334179539773     -0.13967750907481     -0.36520861906937
  C           1.24843326360656     -1.20962773141515     -0.83905474974244
  C           2.05105857732690      1.24279932163817     -0.90952518580461
  H           2.35655815356972     -0.29665622074238      0.59482270562739
  C           1.28441257792177     -2.48860378657379     -0.02766310013267
  C           1.20110736426381      0.94611523412459     -4.68126413437527
  C           1.26878481257613     -0.05451333349504     -3.80353863949009
  C           0.16723113152768     -0.39752908380222     -2.84685646657364
  O           0.50425127692229     -1.44388449705904     -1.96420094888015
  C           2.24612875969081      1.23278990155173     -5.58020632719897
  H           0.33801593548195      1.59696190499790     -4.74364747335992
  H           2.13898971048175     -0.69646801319098     -3.76449932722824
  H          -0.68786561138866     -0.79013402940058     -3.41241665787834
  H          -0.17264627636672      0.48662519843997     -2.29404123989904
  H           2.05761848906541      1.27361722623511     -1.99514367033533
  H           2.99408959330328      1.65025187164994     -0.55204341894911
  H           1.25563530207683      1.89400282744692     -0.54397583396515
  F           2.55764166375603     -2.87956694592965      0.22525053309055
  F           0.70781556518628     -2.31518911509604      1.18937936241280
  H           0.76449249679178     -3.30998330196619     -0.54023418899288
  N           3.09160541880867      1.48077008166156     -6.31363261925551
