17
Coordinates from ORCA-job NEB E -30.251166152730
  C          -0.23382602342985     -0.41822946148773     -0.91580805767177
  C           0.20110002788775      0.19674450785196     -2.17169617275868
  Br          0.06407922333200     -3.57189892895926      0.13344100083903
  H          -0.67124111349036     -1.39358592267715     -1.01918712083190
  N           1.11825559430370      1.20823889280375     -2.09758674292396
  C          -0.02202491628302      0.18168758642414      0.41558077810279
  C          -0.96161413777242     -0.29095241517350      1.49904975164651
  C          -1.50175908305542      0.51673632148259      2.39333379855869
  O          -0.31420265402389     -0.13372845655423     -3.23595588750116
  C           1.33087260373380     -0.21198562460640      0.80249127445399
  H          -0.01152511314220      1.27859294828670      0.35639491425498
  H          -1.17392102391941     -1.34845464809113      1.50999304988184
  H          -1.30780966233544      1.57841999215684      2.42498871058116
  H          -2.16990985143099      0.13395858055887      3.14505826187442
  H           1.78759165302212      1.22951136628986     -1.34348576014810
  H           1.46905890935339      1.53202744521516     -2.98725353354042
  N           2.39687556725021     -0.48708218352047      1.09064173518258
