17
Coordinates from ORCA-job NEB_reactant E -30.311110006410
  C           1.82013844335781      0.00119965744063      0.70660282751899
  C           1.26218294068640      1.21554304336454      0.79531549478416
  Br          1.40206428369936     -1.54660925546194      1.71493578002114
  H           2.58286758508125     -0.18374521712784     -0.02840865469688
  N           1.68151291654912      2.23394037654393     -0.04774997435520
  C           1.99181284950872      0.41913944091913      4.56621168519394
  C           1.56552829480187      1.30857788453456      3.67215065563428
  C           0.24269962891315      1.22889439277474      2.98107825997350
  O           0.30437910285972      1.68736622176892      1.63936677566664
  C           3.23670520631007      0.54655181322748      5.21187616474170
  H           1.40466433747184     -0.44772855950935      4.83990722114406
  H           2.18046281565037      2.15705594321026      3.39965804934267
  H          -0.45988834230360      1.92491046162474      3.45663144530699
  H          -0.18106952638266      0.22095896824484      3.04303147454864
  H           1.04322031041091      3.01500781608941     -0.06812407782354
  H           2.02295415065790      1.95610641541895     -0.95343974002267
  N           4.24566500272776      0.65353059693701      5.74575661302159
