17
Coordinates from ORCA-job NEB_product E -30.342165330450
  C           1.57289246055161      0.66978131689014      1.37678148815440
  C           1.61572458929295      2.04487149525743      0.70011979287366
  Br          3.11648445270878     -0.44166695944383      0.91903403774444
  H           0.69320412006399      0.13282273010636      1.01397582770559
  N           2.82893122350563      2.58978111901395      0.53543702415576
  C           1.44825784362305      0.86342775694795      2.90182463645037
  C           1.27365480787783     -0.44566713014815      3.62801470184662
  C           0.17664811252986     -0.76815430929169      4.28424996847836
  O           0.57745617769876      2.58552156914539      0.39662172767208
  C           2.62045525402686      1.54568200187855      3.40596074337225
  H           0.57367681518659      1.50559525862025      3.07387275510548
  H           2.11667024888194     -1.12080214240661      3.57307974208229
  H          -0.66923594704423     -0.10291883508737      4.35069254415149
  H           0.08045322074207     -1.71563380462228      4.78486586045496
  H           3.67664650417090      2.14114292244695      0.84131875687408
  H           2.88988736682854      3.51476877954386      0.14291556805634
  N           3.56479274935489      2.06744823114909      3.78163482482180
