21
Coordinates from ORCA-job NEB E -47.811410645770
  C           0.73562789505798     -0.04826613602351      1.51509771912488
  C          -0.80335191543572     -0.70033952849060      0.91449627842665
  N           0.91125113280775      0.42161294892732      2.81981801023136
  H           1.31093157383418     -0.97050004456469      1.26722143683263
  N          -1.71696602705423     -1.46945797705515      1.55233979734016
  C           1.07606295729295      0.87681266284386      0.40710082989038
  C           1.08387726794304      0.36135031786061     -0.79849061900212
  C           0.51294953599701     -0.99452230580972     -0.96229648302549
  O          -0.79514007568237     -1.01052793529823     -0.37718408293470
  C          -1.00291450968604      1.20834885877659     -2.77305127213727
  H           1.17939995609683      1.92762225300356      0.72704146048991
  H           1.41891486487278      0.90609328028034     -1.66036772492946
  H           1.01160182821336     -1.83454609907146     -0.44059914454065
  H           0.50349114722272     -1.19557822324909     -2.01559001217296
  O           1.17208085499218      1.56508097373107      3.10944415072818
  O           0.61000296343340     -0.40097025722550      3.69572836341063
  H          -2.15985017679509     -1.81210983226380      0.72994748568314
  H          -1.99274236833298     -1.15068663307584      2.46718836944976
  Cl         -2.59822512859975      0.98489781971982     -3.72549220551506
  Cl         -0.67853734897550      2.90223395683540     -2.68205107031255
  Cl          0.22153557279750      0.43345190014903     -3.77030128703746
