21
Coordinates from ORCA-job NEB_reactant E -47.977379604740
  C           2.12230818342284      0.42488067736493     -0.85651742149990
  C           1.50895214589587     -0.69510490940158     -1.35496475384014
  N           1.71377943999916      1.74890964984441     -0.91981337190153
  H           3.03780183630981      0.29195724497152     -0.30194622872751
  N           1.97332327980241     -1.91727647766411     -0.98436827071639
  C           1.81292824347043      1.93690422858653     -4.10351926497556
  C           1.54346969093856      0.66082934480442     -3.87682714813604
  C           0.28022397533006      0.19198358347392     -3.22573072734196
  O           0.52940088963922     -0.82080851210175     -2.25277776206293
  C           3.04994606714307      2.45856929597857     -4.73800985904091
  H           1.11523243659486      2.71182995332309     -3.81515215938545
  H           2.24605205985033     -0.11655417802295     -4.14549688656533
  H          -0.36092207284648     -0.30754165374560     -3.95895904131305
  H          -0.25800604970121      1.03201282151708     -2.77361377661419
  O           2.54391967428982      2.59948118744067     -0.63864712289058
  O           0.54934011433356      2.01656857253941     -1.20341068153476
  H           1.46642978619288     -2.71744903473202     -1.32397710862031
  H           2.49544528229578     -2.01447427048521     -0.13225860392460
  Cl          2.61166976090700      3.35798259309381     -6.22074589298990
  Cl          3.85953416757673      3.58294162968573     -3.60541879439507
  Cl          4.20167108855531      1.19455825352912     -5.18804512352390
