21
Coordinates from ORCA-job NEB_product E -47.993575772750
  C           2.53343399276568      0.42897199988311     -2.19377077543405
  C           1.76931962719836     -0.91604584721371     -1.92599908994269
  N           2.50834818503240      1.21746556747138     -0.94893251940702
  H           3.57960445039731      0.14503231064954     -2.36066627373587
  N           2.17841465719724     -1.53256392604073     -0.81225494758733
  C           1.97905052720935      1.12482801272348     -3.44740799867251
  C           0.74534593866357      1.96562308327689     -3.21345430405530
  C          -0.47407555607425      1.47382174053623     -3.31769661368006
  O           0.94793012307606     -1.33705664788280     -2.69613039258617
  C           3.06986096416613      1.95339632104442     -4.12762064947772
  H           1.70326039253750      0.31267655963447     -4.13282677292247
  H           0.91309167825501      3.00097864302223     -2.96080420191545
  H          -0.64936789123399      0.43840132939051     -3.55742951520897
  H          -1.33938837882527      2.08820710856108     -3.14420681225568
  O           3.31461648383534      0.86372780709846     -0.11036055054954
  O           1.69301019136563      2.08257249759755     -0.79445456728649
  H           1.74796509460738     -2.40571603822022     -0.55543308399741
  H           2.85697594991131     -1.11824425297031     -0.18832233154762
  Cl          2.40393683268974      2.76138110040501     -5.56061131883169
  Cl          3.73405150696258      3.18593847586269     -3.02400200986998
  Cl          4.41661523026292      0.90770415517071     -4.66171527103598
