25
Coordinates from ORCA-job NEB E -50.819659679820
  C           0.08575147329201     -0.59529563836798      0.78413262783519
  C          -1.07596080564360     -0.46805181892049     -0.02503213260286
  C          -0.05042503635854     -0.37745147749010      2.27272449866290
  H           0.65468193899793     -1.50835917942013      0.61532412926752
  C          -1.35181081596890     -1.46770894367209     -1.11800891594167
  C           1.12349568151298      0.79826037565100      0.04951297824088
  C           0.33247603703965      1.95388506107604      0.14972818859104
  C          -0.95222287798142      1.92987843530760     -0.47662599687677
  O          -1.75145724161537      0.64491035928192     -0.00826902580949
  N           2.42184754793244      0.83592563520093      0.72349898523954
  H           1.25805279794469      0.32131607328608     -0.91692917701985
  H           0.52461675837059      2.62795457621286      0.96888032239457
  H          -0.94775316239213      1.75936393194884     -1.55175174069229
  H          -1.61106133535253      2.74851068281625     -0.20766930056874
  Cl         -0.79899278816734      1.13739974637636      2.75656272800008
  Cl         -1.11805267412286     -1.71037175662262      2.86755520137748
  Cl          1.50665379322093     -0.56875906878757      3.12444291196543
  C          -0.27979997914074     -1.50649726977796     -2.21264216174583
  H          -2.31402980830703     -1.21042067772090     -1.56252001242431
  H          -1.43464528149932     -2.45972657765565     -0.66974226838186
  H          -0.18483978794174     -0.53974287462597     -2.70165973320573
  H          -0.56410305449206     -2.23663237634079     -2.96552621345586
  H           0.68633896724439     -1.79877891218768     -1.80907203824579
  O           2.63644252262465      1.71655099743851      1.51612192291264
  O           3.20479713080330     -0.02615930300643      0.39696422248375
