25
Coordinates from ORCA-job NEB_reactant E -50.858822985210
  C           0.99118302269137     -0.22024336278423     -0.18229155760904
  C           1.39794413473053      0.56585327503992     -1.19066440868767
  C           1.53918107725698     -0.11652068077829      1.18844573491473
  H           0.24565189993372     -0.97640817724493     -0.35031246157784
  C           0.84600404826356      0.38309068735626     -2.57567104621937
  C           4.70118274862606      3.99271347303122     -1.90779170154291
  C           3.77702395239863      3.30929973916193     -1.24548404849555
  C           2.74072016842260      2.44413704616201     -1.87818580925332
  O           2.36352196900579      1.47446029854154     -0.92681752899306
  N           5.64497204751685      4.82856246328658     -1.22003391421607
  H           4.83441248101322      3.99271059745733     -2.97922540877548
  H           3.74125590377505      3.36738503319373     -0.16416114654476
  H           3.12693993527477      1.98521012659080     -2.79698911347854
  H           1.87926481634123      3.07974409422125     -2.14104902022410
  Cl          1.29437832698717      1.52054921599517      1.86770425601326
  Cl          0.75269059985469     -1.27921218383373      2.26867573067940
  Cl          3.30105795485370     -0.44091911700765      1.21312538398169
  C           1.72633089406621     -0.57505980354818     -3.38428839388362
  H           0.76651409829752      1.34054092164252     -3.09235097352036
  H          -0.15595636369037     -0.03731158153220     -2.49589748611735
  H           2.74572810716494     -0.20547510622991     -3.46712276781194
  H           1.32167698879002     -0.69759293564020     -4.38554083223701
  H           1.75881684324147     -1.54676447574113     -2.89927879268807
  O           5.55554762762213      4.93094020758841     -0.01824578449462
  O           6.47445671756215      5.37931024507179     -1.91054890921840
