25
Coordinates from ORCA-job NEB_product E -50.867299569960
  C           2.52127820978233      1.13178844803222     -0.69773199533394
  C           1.30359792122726      0.90343655411869     -1.62409528206549
  C           2.05226125133975      1.34540642818863      0.73938549857168
  H           3.14328322596954      0.22840620026925     -0.69385271327808
  C           1.16805575874565     -0.50495721835717     -2.13152770680730
  C           3.39202490477654      2.27594401043942     -1.25867921711712
  C           3.00002687962420      3.67046196155952     -0.88343656686345
  C           2.37553017669844      4.48665641337314     -1.71113542649782
  O           0.57567454083623      1.80387937244696     -1.93332097464075
  N           4.82900074565261      2.02512073659679     -0.88309436306252
  H           3.37508523014535      2.17969099626983     -2.35259138572125
  H           3.28328151870788      3.98820369246839      0.10855122952124
  H           2.08710662933239      4.18549205146283     -2.70429463730010
  H           2.10128080314146      5.48265495749269     -1.41331545460272
  Cl          0.84750169493961      2.63354933106097      0.90649151728144
  Cl          1.31176644086668     -0.17113740542475      1.32344336407798
  Cl          3.44806410958394      1.70922956280011      1.79913079255336
  C           2.25880572041674     -0.80617451859290     -3.16539640669330
  H           0.18684899913341     -0.61149822794528     -2.59553916003888
  H           1.25071691264784     -1.20258369821851     -1.29753058579475
  H           2.19285027395063     -0.11051951217190     -3.99861811353504
  H           2.12269167310195     -1.81284896336134     -3.55034651759888
  H           3.25301741502063     -0.74083864437628     -2.73052500753821
  O           5.50328375807136      2.97958506633687     -0.61256767806334
  O           5.20996520628758      0.88155240553180     -0.93970320945274
