17
Coordinates from ORCA-job NEB_reactant E -30.318213692520
  C           1.88310474651033     -0.21470307636467      0.09344450763158
  C           1.76414627446025     -1.19250510729951      1.00529183084754
  C           1.46160806243045     -0.27195643636170     -1.24028969732028
  H           2.34045144809270      0.71970495767442      0.38455765310867
  Br          2.41488899659829     -0.86920908163730      2.76959389941844
  C           2.66085144986022     -4.53121108381326     -0.93890440282882
  C           1.98085155627922     -3.39875560152631     -1.13642769882123
  C           0.82858819186676     -3.00560747353613     -0.27463752011806
  O           1.25466923099405     -2.40677188704381      0.97009554277705
  N           3.68238300156618     -4.98169283110199     -1.72834345552235
  H           2.37258765873704     -5.21085907302751     -0.14739976064527
  H           2.26855196302775     -2.71475123205194     -1.91996021702823
  H           0.26700044369482     -3.87921793622288      0.06361503397415
  H           0.15927745054214     -2.31465813722259     -0.79326525071652
  N           1.14754333152275     -0.25689457154865     -2.34544502745792
  H           4.08364975385666     -4.31551015641959     -2.36881392308046
  H           4.32864643996039     -5.64070127249656     -1.33021151421828
