26
Coordinates from ORCA-job NEB_product E -35.681348161690
  C           2.74689491571632      0.06928195790601     -1.39566212491863
  C           1.53433564777397     -0.82241032848551     -1.15517240906716
  C           2.67736089998647      1.24373356292434     -0.41718384884606
  H           3.66262382675879     -0.50033994642170     -1.20844679905301
  C           1.83872962795444     -2.26584916879756     -0.80983515128111
  C           2.74793333550445      0.50043457166931     -2.88622917867889
  C           1.68394515078903      1.51318500459032     -3.19080746435618
  C           0.61164116456818      1.25597328362889     -3.91373098084415
  O           0.40714952692264     -0.40617185231470     -1.23169956768163
  C           4.12065864602427      1.01866659824575     -3.32839034224830
  H           2.56275023540370     -0.39711060457781     -3.48870906198778
  H           1.85568219531837      2.50063257402056     -2.78795277706707
  H           0.42167122314281      0.27749955461071     -4.32390466864069
  H          -0.13280482477012      2.00749688299450     -4.11079988423517
  H           1.70555306836682      1.72536934662866     -0.48642776593773
  H           3.45489816163656      1.97196731719527     -0.62512514567477
  H           2.80733867048681      0.87970913373522      0.60056105973362
  C           2.41633945558274     -3.01820372570014     -2.00923517875294
  H           0.91287444157551     -2.74633396446370     -0.48939236931262
  H           2.55295079723970     -2.28800814706276      0.01605849182872
  H           1.71976281713687     -2.98747145509020     -2.84389729345035
  H           2.58756544660498     -4.05893483966267     -1.74480277078336
  H           3.36215293233189     -2.58665767524248     -2.32842534326483
  F           4.45264692697349      2.20784466031705     -2.73030220726469
  H           4.12324302913699      1.20602593881914     -4.40756801214932
  H           4.91620268183433      0.30987132053350     -3.07191920606589
