30
Coordinates from ORCA-job R E -41.054745778470
  C          -1.42318219329794     -0.32435106304552     -2.79887810289441
  C          -0.36296449622803     -3.09663714476721     -2.27482650638483
  C          -1.61528013972321     -2.69042377109151     -2.08356694847310
  C          -2.08117799293325     -1.32451338697760     -2.20048414012017
  C          -0.99509369905038      1.77662184362405      0.13241141266977
  C          -0.33048270933770      0.62632576485807      0.06637007779175
  H          -2.36672719799402     -3.41244653712345     -1.78914096081104
  H          -3.04839007711221     -1.11366418090260     -1.76467751357368
  C          -1.91430721646816      1.05733712020722     -2.84940852085829
  H          -0.08100309556589     -4.12940321739719     -2.16159066963318
  H          -0.46103828176804     -0.46585549360807     -3.26607811127518
  H           0.42300920002658     -2.40968486998652     -2.53527112962493
  H          -1.92036070544651      1.83327361986755      0.67650401381454
  H          -0.71394181484423     -0.24343843933549      0.58628738206630
  H          -0.66507330918424      2.67576582750175     -0.35407403372837
  N           0.80537709658772      0.35501405712337     -0.66223551836464
  O          -1.27174743442717      1.98455253177996     -3.28730198874416
  O          -3.16046937462797      1.19726026505049     -2.36807395005832
  C          -3.66740126730321      2.52116079711257     -2.34786719579877
  H          -4.70640859851178      2.44621446867368     -2.03675141893805
  H          -3.59373632301807      2.97331526105415     -3.33945686657669
  H          -3.09973720377324      3.12971501471328     -1.64088305167015
  C           1.67730624891944     -0.68237431769563     -0.16992032286527
  C           1.46879930697595      1.44773717545971     -1.33240562254948
  H           1.08121664028018     -1.51363281543691      0.20446926815449
  H           2.33509822396219     -0.33212989130392      0.63842377274769
  H           2.30587963954924     -1.04457219679479     -0.98522585751086
  H           1.90685078941689      2.16839201505998     -0.62938200815678
  H           0.75425035581071      1.96405917343912     -1.97126270917685
  H           2.26463562908637      1.04648238994145     -1.95889277945734
