30
Coordinates from ORCA-job TS E -41.038940347370
  C          -0.90392029338893      0.10560156872883     -0.96781052393550
  C           0.46275280307474     -2.30875225983258     -0.27965486841171
  C          -0.88460051260884     -2.25619449882655     -0.42875132375490
  C          -1.57389066352962     -1.09975570238457     -0.82462749241705
  C          -0.22628682114297      0.51905923144262      0.94922002638909
  C           0.75747793049822     -0.37090684845932      1.32685779781742
  H          -1.47825208778057     -3.09923983992106     -0.09870744522672
  H          -2.65097082443690     -1.09000951516572     -0.76220476455348
  C          -1.62795917476732      1.35141408324756     -1.27498431324071
  H           0.93189311757142     -3.18201254907095      0.14297602462063
  H           0.09928536342402      0.11339800822431     -1.36827450676702
  H           1.11458373541219     -1.61937447068378     -0.78088375306080
  H          -1.18776284732000      0.40902651339417      1.41976520102801
  H           0.49910141209021     -1.20485630380277      1.95996275923261
  H           0.04015559552007      1.53058742443155      0.69361928844594
  N           2.10314653228242     -0.17047655974015      1.18759118533991
  O          -1.11557192991233      2.33147661793263     -1.76685859934034
  O          -2.92422271103057      1.31326549152913     -0.91785195348299
  C          -3.66812058992416      2.49247573833483     -1.17140012641686
  H          -4.68075746140660      2.29492902065680     -0.82859885993936
  H          -3.66298789058942      2.72467445546907     -2.23874336260151
  H          -3.23781546502572      3.33776040764136     -0.62928717429954
  C           3.00966588058880     -1.21255157690385      1.59401674475886
  C           2.64558578271832      0.70900232103113      0.18254964798145
  H           2.58083240519447     -1.78120034056754      2.41593333033130
  H           3.94496518439402     -0.76258302865942      1.93167190526338
  H           3.23743207408217     -1.90189118677851      0.77109038229700
  H           1.93185741889594      1.48370767655857     -0.07829662375829
  H           2.91480745099722      0.16081999722825     -0.72936922163864
  H           3.54957658611972      1.18260612494595      0.57105061933981
