16
Coordinates from ORCA-job NEB_product E -36.575237939830
  C           3.12156284675190      0.97536176614895      0.28348138859494
  C           1.67149314877520      1.16763926328546     -0.04369724558874
  Cl          3.40385962988856     -0.76879421922293      0.56259293273933
  H           3.74495691608727      1.28503921411932     -0.56092264777243
  N           1.40326466654380      2.53142450578883     -0.74738788587045
  C           3.46087392954904      1.81619473177868      1.52188585329996
  C           2.60593887299227      1.48695326615661      2.69291130789184
  C           1.94275353837844      2.39913945574655      3.38066989435782
  O           0.73614803016376      0.48217637483707      0.17163597147345
  I           5.55807282873846      1.51367701924576      2.03180296054526
  H           3.39218078833157      2.87375472963596      1.25964847106727
  H           2.56376755173923      0.44055793537921      2.96008771402396
  H           1.98714803511487      3.44710612199746      3.13048801952489
  H           1.33073202188943      2.13265406160421      4.22372123778191
  O           0.26762188051079      2.73025281995438     -1.06701288195743
  O           2.35292531454541      3.26356295354449     -0.89160509011158
