16
Coordinates from ORCA-job NEB_reactant E -36.576118015500
  C           1.79845546112061      0.17675293656896      0.00241413390238
  C           1.48438722125571      1.47156845433314      0.13217815596549
  Cl          2.15977611548737     -0.94082777454945      1.24675828678404
  H           1.82821327398641     -0.23945883365135     -0.99476414592628
  N           1.19125751828296      2.20186539075575     -1.11648460974133
  C           4.09737499899106      2.91751511549023      3.08592136970426
  C           3.38666356211473      2.01596396845250      2.43674811734609
  C           1.88608928542185      2.01337934034339      2.44446320601453
  O           1.34687481010962      2.31030611389861      1.16132235007615
  I           6.19469440545055      2.92937157591259      3.09760434780486
  H           3.66000999370536      3.70667947187335      3.67420700079688
  H           3.86210729824131      1.24319066420024      1.85032523711918
  H           1.50092631623244      2.81316783374374      3.08080375820795
  H           1.51093090081178      1.04972826020618      2.80460725364585
  O           0.99778458000503      3.38397069562523     -1.01547123998272
  O           1.16645425878321      1.56272678679688     -2.14263322171735
