21
Coordinates from ORCA-job NEB E -50.720231724120
  C           0.36143962701325     -0.77086924406901      0.74453333961929
  C          -0.95400171447492     -1.09099829509855      0.33168469693617
  C           0.48422907963238     -0.17396298224586      2.03924119320061
  H           1.13723061961587     -1.50934726234522      0.54959850802642
  C          -1.11986834422104     -2.16389956450208     -0.73622413260675
  C           0.72697693912872      0.68113834619758     -0.41054095026634
  C          -0.31909221642235      1.56462215155806     -0.10804872164893
  C          -1.65120353019607      1.14351423678326     -0.38972465210711
  O          -1.90185776194900     -0.21534002646612      0.44480368584308
  C           2.15094384213563      1.12377534632570     -0.13756553397660
  H           0.68029347135322      0.13836598037573     -1.35147583065125
  H          -0.15794666303579      2.29490795895889      0.67219756393875
  H          -1.84048782899093      0.79111458864798     -1.40139214036530
  H          -2.44201164044275      1.78474372107148     -0.01947275802586
  N           0.55262394997543      0.28304082454837      3.08340921691387
  F          -2.35263188638407     -2.66099339326734     -0.77771081948258
  F          -0.86608349213803     -1.66743057923057     -1.97655956134579
  F          -0.27002885446594     -3.18387229377965     -0.56943114896573
  F           2.27435382332249      1.79246424514225      1.02458599464006
  F           2.98416011221058      0.05852376711599     -0.06862014938915
  H           2.52296246833330      1.78050247427911     -0.94328780028685
