21
Coordinates from ORCA-job NEB_reactant E -50.755503417920
  C           1.80955826467719     -0.04315637419370     -0.12630747016576
  C           1.53091159978051      0.04827363487700     -1.43663976697863
  C           2.05463983704500      1.01531435723099      0.76418638070434
  H           1.85577736638265     -1.02284950485564      0.32887151984657
  C           1.28510440204229     -1.22009425920554     -2.24495013198050
  C           3.68958795935310      3.67968065900802     -2.46893884297635
  C           3.12087616101632      2.71041385198146     -1.77332943975832
  C           1.65082607995576      2.42287951895334     -1.80563735886804
  O           1.38897215258876      1.09637444496850     -2.25397409345252
  C           5.16066308906697      3.96895938016754     -2.43954186413453
  H           3.12496983674648      4.35636104398241     -3.09329559294816
  H           3.72099015811581      2.06185183843112     -1.15013520066068
  H           1.14709363100854      3.05958246632365     -2.53609771360815
  H           1.21023450425807      2.58363588300168     -0.81557241440589
  N           2.26093551622805      1.83692112337171      1.53804451902289
  F           0.05453557539284     -1.23667455489047     -2.76863879081285
  F           2.14700326545751     -1.32285815856421     -3.26268559978272
  F           1.41125274517631     -2.33262282666087     -1.51466078313524
  F           5.38475076254176      5.25575702710678     -2.06901974405810
  F           5.82025425483209      3.19249549246660     -1.55201686542925
  H           5.63576283833400      3.82775495649966     -3.42666074641812
