21
Coordinates from ORCA-job NEB_product E -50.751806043720
  C           2.97573272007463      1.03438503551846     -1.53893192498064
  C           1.69447610753539      0.45708517851852     -2.10091690461146
  C           3.06000584015271      0.76139666364037     -0.11504687310252
  H           3.81217902941728      0.50205283156996     -2.02004385004760
  C           1.45940219043266     -1.03455260904612     -1.71468552026655
  C           3.07190460842920      2.54861782360521     -1.84964950195010
  C           2.22958479076617      3.36009925164749     -0.90263400565358
  C           1.13096034578879      3.99014957896831     -1.26963518894337
  O           0.90594675973636      1.03964583668111     -2.77992196881258
  C           4.53241481342442      3.00060214092006     -1.79157806927378
  H           2.72584268533142      2.69887039265914     -2.87816092249865
  H           2.57945442647537      3.38134862775455      0.12037402089763
  H           0.76903845086772      3.96132666103216     -2.28402129496049
  H           0.54373047690114      4.55100793441012     -0.56434101070923
  N           3.12176809797033      0.56140442991048      1.00553850494272
  F           0.70419501581075     -1.65360895650455     -2.61873451080586
  F           2.61091340190485     -1.71321896877555     -1.62061812037958
  F           0.84090182319077     -1.12504622248033     -0.53327106620703
  F           5.09351972167156      2.73116550309979     -0.59348918622325
  F           5.26732835613698      2.32570202519247     -2.71220011508940
  H           4.64670033798150      4.07706684167831     -1.98793249132466
