16
Coordinates from ORCA-job R E -25.927706823460
  C          -1.23357357196223     -0.04002795452836     -2.82252588930151
  C          -0.02487907861236     -2.64177365346200     -1.90297465902262
  C          -1.30370186692167     -2.29052549596865     -1.80552399661933
  C          -1.88649695195965     -1.02647731780928     -2.21323599160673
  C          -0.83873994185279      1.85911947937826      0.15693296720269
  C          -0.23346036836674      0.69374558781682      0.26695931333979
  H          -2.00884727008775     -2.99217235094222     -1.37913085239380
  H          -2.93806715736340     -0.89849909566046     -1.99468203429129
  Cl         -1.99328882819578      1.43453379460599     -3.25284099307909
  H           0.31452427357489     -3.60516116249798     -1.56585111270051
  H          -0.18894724820287     -0.07209943886144     -3.08482851416182
  H           0.72917093664417     -1.98679083917900     -2.30124097153609
  H          -1.80545503947262      2.02022467018819      0.60043335183999
  H          -0.64885714741902     -0.16197606756278      0.77496177274277
  H          -0.39455775429516      2.68746052773342     -0.36653388436717
  Cl          1.31404701449297      0.38598931674951     -0.41561850604527
