16
Coordinates from ORCA-job TS E -25.911380364940
  C          -0.56892184690939      0.73489367549629     -1.27102784812160
  C           0.74475871505165     -1.46581096961561     -0.03346261014095
  C          -0.58417480287768     -1.48223015228119     -0.31098912874443
  C          -1.23489400895026     -0.41215193972514     -0.95600677417881
  C           0.04740667738570      1.33501094935474      0.79487154190110
  C           0.85447104533160      0.38411361213802      1.32992934614659
  H          -1.21149369604266     -2.24710452249398      0.12521665590272
  H          -2.31438475190223     -0.41915800707271     -0.99775940729792
  Cl         -1.43291486911954      2.09087032354625     -1.89833537118119
  H           1.18374288959248     -2.24865607808730      0.56330042350402
  H           0.47826725657158      0.76077944688705     -1.52015501904932
  H           1.43585051322318     -0.90785636598583     -0.63708256456024
  H          -0.98003835164993      1.38417418750875      1.10750426363500
  H           0.53706623950848     -0.30445544448788      2.09335586606026
  H           0.46585588364353      2.22284772865612      0.35589391559931
  Cl          2.57940310714349      0.57473355616242      1.25474671052544
