16
Coordinates from ORCA-job NEB E -26.221311925250
  C          -0.06693134714132      1.28547444506367      0.62746245880764
  C          -1.30853279629727      1.21300599912088     -0.00256530654261
  Cl          1.30401778074562      1.97716717460164     -0.20831482263987
  H          -0.03136361224328      1.52489154562656      1.68352734992575
  H          -2.16597263403668      1.09335026593639      0.67957820552576
  C           0.43676052640733     -0.69321161345625      0.55378922933566
  C           0.31579777908202     -0.88561539596303     -0.83628350047906
  C          -0.92034221646827     -0.84392606407077     -1.45286789869807
  O          -1.44523974806244      0.91914668135517     -1.22115537511882
  N           1.67408869195472     -0.79226036991042      1.14954669173123
  H          -0.37397198047473     -1.03911262003557      1.18568854438181
  H           1.19951671181028     -0.70825323779623     -1.43295565977065
  H          -1.78571864125463     -1.23773069916532     -0.93972766018633
  H          -0.97084888541942     -0.89069278810074     -2.52834540273659
  H           2.42540587567946     -0.37598473828066      0.61576490915450
  H           1.71333449571859     -0.54624858492532      2.12685823730964
