16
Coordinates from ORCA-job NEB_product E -26.247592682310
  C           2.74243995449645     -1.48146674154556      1.23436078513750
  C           1.38895640489933     -1.05888692943650      0.71170871877902
  Cl          3.96414717030478     -0.42255224423343      0.45854588028832
  H           2.83524769479052     -1.31838457159529      2.30916516080367
  H           0.69547946332050     -0.71699412716746      1.50483086447143
  C           3.03055804339121     -2.96374736592847      0.92245387791632
  C           3.05178991960838     -3.22832547746277     -0.55859744780896
  C           2.26787494343828     -4.10306936610583     -1.15913590235902
  O           1.06211903437795     -1.08120243928463     -0.43709365055829
  N           4.26587406438045     -3.32656031529806      1.60138332228870
  H           2.22262611695762     -3.54681327473401      1.38594587584303
  H           3.79526973990331     -2.67471055635495     -1.11493462619020
  H           1.52086936268613     -4.66221986518126     -0.61894376663362
  H           2.33122925734178     -4.28897749683158     -2.21715173959685
  H           5.03593360228960     -2.77910209085922      1.22870477826666
  H           4.47418522781371     -4.30648713798097      1.44705786935229
