16
Coordinates from ORCA-job NEB_reactant E -26.258656653700
  C           2.17895064761648     -0.52541602242756      0.53901949740620
  C           1.23168881453632     -1.45439572549109      0.61968739413133
  Cl          3.60989075523901     -0.53806387952246     -0.43505151829247
  H           2.10091746780998      0.36652322468494      1.13668758379746
  H           0.40814010912997     -1.25199985677083      1.29626519572270
  C           3.42857500806106     -3.80001461754374      1.04802253695246
  C           3.27075662748132     -3.58713608239938     -0.25460951560047
  C           1.97883978555210     -3.16199510058938     -0.88894039202643
  O           1.02572847558354     -2.63810768100085      0.02457406947025
  N           4.58135503860083     -4.28499149410008      1.63803932465113
  H           2.60499140638054     -3.66031900688749      1.73502668972335
  H           4.09028249260289     -3.73212390490823     -0.94298794166763
  H           1.46807021287535     -4.02732715176590     -1.33089704578030
  H           2.17237476064499     -2.43962503117363     -1.69094509130426
  H           5.40245146651413     -4.23579451324037      1.05245416660556
  H           4.74938693137150     -3.97351315686394      2.58185504621113
