24
Coordinates from ORCA-job NEB_reactant E -36.568638315920
  C           2.35598428576865     -0.10996492978674      0.25582345506820
  C           1.98444861997219     -0.96549709008883      1.20469734611063
  C           1.95252828981915     -0.18614158370648     -1.18280292423947
  H           3.01010601118789      0.69745303972386      0.54403582509689
  O           2.45905524511331     -0.80492677837162      2.47815662504282
  C           3.92382369617900     -3.55118935793921      1.51343997082231
  C           2.64509755326027     -3.86676558576096      1.42791694873664
  C           1.72405040520130     -3.19352040094406      0.45297452568398
  O           1.12456127908534     -2.01722974089963      0.99737282872622
  F           4.73375266950058     -4.11988049947601      2.41687433081531
  H           4.44497121918316     -2.83650680476012      0.89213343395071
  H           2.21860165647417     -4.58341729314785      2.11425931720689
  H           0.88075009076739     -3.84268852654464      0.20947574990894
  H           2.26926588099367     -2.93997031957475     -0.46320965264504
  C           3.15086328760784     -0.46196746997801     -2.09290690512036
  H           1.51005890396510      0.77117927517730     -1.47122658328817
  H           1.19256337314355     -0.95742229139001     -1.31520562472477
  H           3.90163109487858      0.31561547791299     -1.97380927065056
  H           2.83887837548729     -0.48493195338295     -3.13445248346735
  H           3.61054621394962     -1.41817355370332     -1.85020037707665
  C           1.68550035855883     -1.35797954570206      3.52425703130423
  H           2.14229452229743     -1.00038104525441      4.44478864027410
  H           1.70725595098561     -2.45091256932780      3.50613191759950
  H           0.64771101662006     -1.01958045307468      3.46667587486500
