24
Coordinates from ORCA-job NEB E -40.745496069500
  C          -0.03304493740720     -0.93230427385481     -0.49733337997445
  C          -1.37376512230960     -0.57128110815697     -0.61450260735808
  C           0.32623772432705     -2.08977311815719      0.39383441904005
  H           0.57943860005151     -0.85816459920563     -1.38876291002635
  C          -1.75209749206385      0.23846515974058     -1.84824829659257
  C           0.62375860226146      0.69749731863946      0.63652651586874
  C          -0.54943214301788      1.31259839700102      1.08193721564409
  C          -1.53518916448258      0.54419367492766      1.69988541104085
  O          -2.13956375116276     -0.54128963459764      0.40354606058445
  O           1.41964213902907      1.40619481593279     -0.19988741501233
  H           1.14131680751482      0.02124829916948      1.30889661414966
  H          -0.85195168396363      2.20431112148834      0.54910631704480
  H          -2.46785953803430      1.01900712298679      1.96225724494988
  H          -1.22989328772760     -0.24061023001305      2.37798050967151
  F           1.67082115921541     -2.10521482916245      0.69438741183660
  H           0.12567161564767     -3.03576055147511     -0.12491821686501
  H          -0.22002349225500     -2.06846933185997      1.33976967007742
  F          -3.04996978901430      0.65812996775950     -1.79074278302242
  H          -1.64211744496154     -0.35342636531773     -2.76340504655675
  H          -1.12448410332533      1.13876699018046     -1.90544478851033
  C           2.75841005064750      0.96507117778562     -0.30216040749371
  H           3.28806894775601      1.10445144596187      0.64486121793174
  H           3.22459189998182      1.57571022210326     -1.07252359935501
  H           2.81143440329324     -0.08935167187629     -0.58505915707276
