24
Coordinates from ORCA-job NEB_product E -40.792502550560
  C           2.68242502556873      1.23955369650096      0.19934540304389
  C           1.38719679901070      1.89662079314017     -0.25471984587627
  C           2.36244611548829      0.05721930785380      1.11076032605017
  H           3.25061299565603      0.89762913514215     -0.67053694063467
  C           1.55193835493834      2.73007132514658     -1.50933269929136
  C           3.57965685563865      2.26624222589393      0.94251390943576
  C           2.80691774318765      2.99368877344781      2.00928279046124
  C           2.93620555450034      2.75136308403975      3.29976875736228
  O           0.34819630395533      1.77101791123999      0.33280956585037
  O           4.10516447292795      3.15078506923669     -0.03286298951613
  H           4.40770741430509      1.70354394816280      1.40392919017157
  H           2.11820610435341      3.74299120010604      1.64362618607199
  H           2.35651590239988      3.27882606760307      4.03727941213710
  H           3.62242844316967      2.00650513590539      3.67010668697689
  F           3.51562343420296     -0.60141483121946      1.45602365175150
  H           1.71965315608376     -0.66647518039061      0.60167695559112
  H           1.88815217157780      0.39277829122128      2.03724135183444
  F           0.41640162896765      3.42803566233087     -1.80757897232590
  H           1.76909893125039      2.07801155365879     -2.36349818280398
  H           2.37243344270989      3.44368557223528     -1.37458885292334
  C           5.14144974082522      3.96950447313690      0.45721868049892
  H           5.46915121066664      4.58041896851066     -0.38118578863574
  H           5.97986352594216      3.36439760360886      0.82073723911601
  H           4.79255467267349      4.61500021348830      1.26998416565415
