24
Coordinates from ORCA-job NEB_reactant E -40.786109594560
  C           2.09451291757320      0.51650344972276     -0.02717949726748
  C           1.41625623310201      1.65028827883523      0.13213756747252
  C           2.43041103518342     -0.43713488949773      1.07349501989047
  H           2.44561695419183      0.26174428714647     -1.01453478489269
  C           1.06951594828675      2.55755269051343     -1.02177801085939
  C           3.98721569481437      3.38583992585813      1.36180109843698
  C           2.74330570273294      3.63879668831425      1.75551696045252
  C           1.85455626847203      2.56471610490650      2.29307154510550
  O           0.90149920134933      2.12004400705261      1.31172226844199
  O           4.77943841159482      4.33303560184960      0.80811698348040
  H           4.42374953818503      2.39886772366001      1.47913047177614
  H           2.31924936064235      4.62166049276566      1.62226739356284
  H           1.22806511058450      2.93568395228890      3.10670689521888
  H           2.45938760401910      1.72726885772623      2.65205124161005
  F           3.69608182406289     -0.18230379005679      1.58204054466947
  H           2.45570717178075     -1.46759705125224      0.70715689252082
  H           1.73382520289700     -0.35025228587578      1.91264919810726
  F           1.39732166989617      2.01098698577471     -2.23239910404942
  H           1.61583413486313      3.50475774733084     -0.93116847944302
  H          -0.00796330529524      2.75628834691680     -1.02733698241583
  C           6.09560131872150      3.92750419576380      0.50627570571298
  H           6.57978716505902      4.78244920891375      0.03815390473631
  H           6.10103584349157      3.08076333405830     -0.18738234892227
  H           6.64308899379154      3.65103613728457      1.41298551665496
