23
Coordinates from ORCA-job R E -28.682740508010
  C          -2.02447536628341     -0.08872140654560     -2.56091999822942
  C          -0.33796083302197     -2.55199562899890     -2.25273320715406
  C          -1.62734240298905     -2.45456287460951     -1.93582723952592
  C          -2.43203576192493     -1.25725238621472     -2.04004463277007
  C           0.47350750514880      1.87747376146759     -0.89123241950110
  C           0.31616657003279      0.84470752605618     -0.08514714402419
  H          -2.14507232797706     -3.32405574416488     -1.55234663612072
  H          -3.44264422563106     -1.32828655596019     -1.65714567452899
  C          -2.85394980839908      1.04172648208184     -2.60748189450883
  H           0.19996760816155     -3.47731187245358     -2.14147934599301
  H          -1.03332525976442      0.05114054943749     -2.96951914465732
  H           0.22861666051849     -1.71598798951696     -2.62576056809154
  H          -0.33617536455736      2.27863477550105     -1.47769550896146
  H          -0.64604058712175      0.35349601503381     -0.00558498157620
  H           1.42371400338489      2.37860649211727     -0.98078070279752
  C           1.39652039242909      0.26018261570720      0.76899282049455
  N          -3.51536580561959      1.97932317473141     -2.64968283261627
  C           1.62745819014818     -1.21764069601015      0.45427711627101
  H           1.10073491926270      0.35449110591299      1.81812569204132
  H           2.32466238856768      0.81718085071551      0.62628621968784
  H           0.70366813784566     -1.78117278310769      0.57080344809128
  H           2.37581663415181     -1.63625721931593      1.12281128231736
  H           1.97301473363803     -1.33830819186426     -0.56941464784672
