23
Coordinates from ORCA-job TS E -28.667018347640
  C          -1.22536057116053      0.80588505490854     -1.64063495620286
  C          -0.12990479567537     -1.52535352423126     -0.42085179061614
  C          -1.44960596914853     -1.43032616093928     -0.73742825024479
  C          -1.99395988659729     -0.29486328468104     -1.36048771518157
  C          -0.59867672733756      1.27056231327441      0.52805998174458
  C           0.17403167783603      0.25655419207220      0.99887818192439
  H          -2.14468632074618     -2.15473265662470     -0.33546080186532
  H          -3.06965224093508     -0.21114710935249     -1.43430064988856
  C          -1.81250471753935      1.99829052089924     -2.09531509047740
  H           0.21349024515477     -2.36696518167480      0.15727221791782
  H          -0.16302095490623      0.72677365870794     -1.81420669833978
  H           0.62285721714229     -1.01949234026994     -0.99631107965189
  H          -1.63603666828778      1.34925346638117      0.80164213923017
  H          -0.24022015721602     -0.43782779329161      1.71405109693851
  H          -0.14673185647398      2.15895786553782      0.11958373524188
  C           1.67801941012269      0.37251326778827      0.97502244303029
  N          -2.28572137585449      2.98504983784360     -2.44314053095070
  C           2.41604468017482     -0.85323550553690      1.49958835012840
  H           1.94464663951194      1.22528028912733      1.60953711084013
  H           2.02651805787889      0.61581827231004     -0.03235452625099
  H           2.03672455908007     -1.13272021416210      2.48005414640634
  H           3.47759120303372     -0.63569615250345      1.59519718366183
  H           2.30615855194314     -1.70257881558298      0.83160550260568
