26
Coordinates from ORCA-job NEB E -56.223098001250
  C           0.36566888300789     -0.06585734771540      0.56270419729850
  C          -0.99885666277438     -0.00087562043513      0.88692470099152
  C           1.07790784525738      1.23587468747332      0.26963043845755
  H           0.96124896999878     -0.74881464258127      1.16160657172505
  C          -1.62867721555353     -1.03159556983110      1.79126344859388
  C           0.20195878806462     -0.92751449711551     -1.15521781620025
  C          -0.67228788751388     -0.10060847225761     -1.85754819913643
  C          -1.99040927380114      0.08093548701099     -1.31263434241937
  O          -1.80428051728145      0.68857300093224      0.11635911133555
  C           1.58758174541050     -1.12436873074131     -1.71856213833588
  H          -0.17495683965930     -1.87169978825358     -0.77329317951610
  H          -0.26575728453538      0.66459128042368     -2.50210964995919
  H          -2.54096123667912     -0.83780820671627     -1.11688539719645
  H          -2.60344379907606      0.81947337644748     -1.81805659721304
  C           1.33624635685524      1.95930036701782      1.59030044406392
  H           0.45718197933115      1.86092468238143     -0.37247509776530
  H           2.03150782147454      1.05560924306597     -0.22321850606478
  H           0.39611166318618      2.18423981286087      2.08762026268612
  H           1.86585047023012      2.88946230131591      1.40324705619449
  H           1.94005979287889      1.34485241973999      2.25360507161105
  Cl         -1.82427478619629     -2.63685634280961      0.96423744740998
  Cl         -0.63336667188769     -1.30492762774080      3.22993312106845
  Cl         -3.24021623489382     -0.49634719200847      2.29104596813461
  F           2.49219183676834     -1.45837148781903     -0.78662397753197
  F           1.58970110529806     -2.12636540539893     -2.61520126896138
  F           2.07427115209035     -0.05182572724569     -2.35665166927054
