26
Coordinates from ORCA-job NEB_reactant E -56.245004736550
  C           1.82511574778765     -0.29577271718476     -0.05016674902176
  C           1.37239114984173     -1.30417064557033     -0.79139730153359
  C           1.89700787172953      1.12757233107932     -0.49078877633854
  H           2.17759836065117     -0.50698390116726      0.94858377865137
  C           1.32473684535892     -2.71219610207882     -0.22635999007753
  C           2.32481123256435     -3.16186032417735     -4.43422674266821
  C           2.49051546198288     -2.42125426864658     -3.35112034626744
  C           1.79640379829635     -1.11163969744261     -3.12909882440159
  O           0.86286825080678     -1.15464226327917     -2.05462276993149
  C           3.02276321065476     -4.46929433127001     -4.64070153908398
  H           1.67703099112029     -2.88263432712720     -5.25142288718790
  H           3.14640577137835     -2.75276333839376     -2.55665789436162
  H           1.19601783484233     -0.83799661606043     -3.99893449860890
  H           2.55198374092402     -0.33641425392649     -2.94280264869755
  C           3.34539272698296      1.61847392013640     -0.52448630109398
  H           1.33743249922188      1.73375182310459      0.22588703016212
  H           1.42940512672944      1.24332466900760     -1.46876651441186
  H           3.79909718480145      1.52963061597721      0.45937283820182
  H           3.38018904602702      2.66113219094530     -0.82893302058130
  H           3.93628649576502      1.03324207343498     -1.22572574284500
  Cl          2.98935622744942     -3.30068217518522      0.09033567707327
  Cl          0.45037853309570     -2.73269193727406      1.32337241546817
  Cl          0.53079144078820     -3.84149464301526     -1.33285062036536
  F           3.81858032612661     -4.81955255810579     -3.62408592039219
  F           2.15314459421014     -5.47819224419329     -4.81754484307677
  F           3.79779553086307     -4.44899127958701     -5.74265780861016
