18
Coordinates from ORCA-job NEB E -28.930130270280
  C           0.40583117131280     -0.25515699438063     -1.24248768736150
  C          -0.97454695013368     -0.15751257318150     -1.08522776858765
  I           1.25814121504460     -2.18852135250271     -1.34425357645379
  H           0.90366491810031      0.42819366921340     -1.91733337486620
  N          -1.57656281445107      1.04747624642281     -1.43108669772774
  C           0.93443298208722      0.40785058974305      0.71735324015264
  C           0.17653261169593     -0.49825453630561      1.46050655665434
  C          -1.21606560911631     -0.47426590125847      1.38438941832466
  O          -1.61107030364049     -0.93634122325873     -0.30176766246829
  N           2.30661861215919      0.38302706467161      0.78268547436111
  H           0.52181709988269      1.39171434740356      0.52369294059120
  H           0.66003119274889     -1.41389407265815      1.77121725799510
  H          -1.71024028207734      0.48828043943500      1.34278210530989
  H          -1.77259981356303     -1.24180216517198      1.89935806426952
  H          -2.57761153087175      1.06058192740633     -1.31346538108224
  H          -1.24302842885390      1.51963351475901     -2.25454418817731
  H           2.71365770139508     -0.53748488795203      0.87256206249761
  H           2.80099822828086      0.97647590761506      0.13561921656865
