18
Coordinates from ORCA-job NEB_reactant E -28.952909009250
  C           2.08897297012824      0.26653693444436      0.09239566256031
  C           1.63428877880795      1.35681023872789      0.72091120351137
  I           2.37103154623144     -1.67528417122694      0.85062512795021
  H           2.32846832645546      0.32983710933004     -0.95286363685061
  N           1.49791051775762      2.54250408323574      0.00541924209607
  C           4.04265335348011      2.24659123981677      3.64270881309798
  C           3.44922886070264      1.22271859500149      3.03125703896143
  C           1.97915099641933      0.97859741393879      3.10190329190444
  O           1.25417033707021      1.55520641617204      2.00460471770708
  N           5.36947381925675      2.58625353575164      3.50991778541655
  H           3.46920015098499      2.92611249463365      4.25955787346895
  H           4.02863465978227      0.55797788712208      2.40756593946952
  H           1.54458456904302      1.48357286253703      3.96854738985816
  H           1.76032018057410     -0.09109301022677      3.17427445211695
  H           0.93899624338794      3.22674837824700      0.49246331283225
  H           1.27886629399422      2.45394278127672     -0.97369335310883
  H           5.95405434395245      1.88200147724554      3.08589809703810
  H           5.79509405197124      3.05826573397290      4.29080704197006
