16
Coordinates from ORCA-job NEB_product E -33.453604692280
  C           3.34770511667020      0.84733269658027     -1.76414856334095
  C           1.93098896005600      0.93341044254454     -2.27752057336749
  F           3.45367504138655     -0.16717881217725     -0.84715482983225
  H           4.01623820008628      0.59130205203863     -2.59853039054958
  N           0.98098899281008     -0.01566564269305     -1.54923549823648
  C           3.75485714901345      2.19013815346009     -1.13075844122472
  C           2.80181503488273      2.58400636490834     -0.04006061758355
  C           2.05362094228306      3.66884074803002     -0.07791250031644
  O           1.52394622804058      1.64503684160291     -3.13494592446288
  H           4.76099452859255      2.06655090254728     -0.72305918869648
  H           3.77413363279071      2.94457436822759     -1.91776020353690
  H           2.74650397976628      1.89889554977407      0.79421829109540
  H           2.09069243106786      4.35740591088811     -0.90650749962649
  H           1.37556912186459      3.91394426993829      0.71986190032480
  O           0.50532240808360      0.39812633310009     -0.52736398724110
  O           0.80264823260547     -1.07712017876994     -2.08222197340490
