18
Coordinates from ORCA-job NEB E -38.481327617440
  C           0.23750285776510      1.28040530361713     -0.46234689487810
  C          -0.92555257526514      0.92733427271154     -1.17042899075920
  Cl          1.74744418233993      1.14161910303563     -1.31280640568716
  H           0.22543114337225      2.13544170800027      0.20552959669558
  O          -2.13528181255300      1.37189251857392     -0.71575491505141
  C           0.19167178306325     -0.32435022506609      0.73947102809101
  C           0.25975664187629     -1.37268942859606     -0.17612482515360
  C          -0.83109557781024     -1.53648910899643     -1.05917928390267
  O          -0.93644122721461     -0.08867770991301     -1.93225172625384
  C           1.30016189670186     -0.12126430023664      1.74187045001441
  H          -0.77242324934134     -0.09888771918252      1.18758101767875
  H           1.23487966097238     -1.72744707168861     -0.47409378616274
  H          -1.82769047432665     -1.51508123428613     -0.63088773966819
  H          -0.72021734407677     -2.25268843380621     -1.86115828298122
  H          -2.04074102196222      2.15184853481248     -0.15660381824278
  F           2.53224402214758     -0.25714663442805      1.21540187861267
  F           1.24248427159122      1.12453115740765      2.28323707546477
  H           1.21786682272013     -0.83835073195886      2.57854562218375
