18
Coordinates from ORCA-job NEB_reactant E -38.517538430380
  C           2.47951240210326     -0.07351953396619      1.04091861197467
  C           1.32996688702743     -0.63469790977119      1.41549680236227
  Cl          3.96333678097633     -0.86686530590151      0.65893001089221
  H           2.52401974929421      0.99908494950573      0.97612989751758
  O           0.28468800983683      0.18590149043736      1.68130864535644
  C           2.89309726068890     -2.37217680198877      3.63531977599111
  C           2.90757973476807     -3.07439733439522      2.51523488133142
  C           1.87435046936873     -2.98720209121990      1.43534668978845
  O           0.95116449999031     -1.92785244049887      1.58792074978111
  C           3.94072537431911     -2.48712373093017      4.69909268868803
  H           2.13320052991863     -1.63661317236179      3.85335265472100
  H           3.69264896107275     -3.79251336736020      2.32632603514775
  H           1.25330439248053     -3.89052546719746      1.46054424416259
  H           2.36267971062568     -2.93707218932418      0.45665884080791
  H          -0.48276573029173     -0.36659350797182      1.88506284464587
  F           4.90232260710646     -3.38557649004580      4.38348402872534
  F           4.57428102877105     -1.29791111640270      4.88067499721960
  H           3.52018733194345     -2.77954598060732      5.67749760088665
