18
Coordinates from ORCA-job NEB_product E -38.541431020410
  C           2.39662720670261     -0.67271513603290      2.31824070573889
  C           1.08148403662698     -0.07204173237255      2.85707402414312
  Cl          2.53979097177480     -0.43764551166621      0.54485395648213
  H           3.23787348140255     -0.14326025625130      2.77682361467712
  O           0.25896637058266      0.45456299273854      1.97410298910806
  C           2.49416587486290     -2.17505522192805      2.64303817590688
  C           3.62055799507933     -2.81830044972386      1.87772702020960
  C           3.45960494186111     -3.84938870001522      1.07244393567810
  O           0.83988224014061     -0.11084245227852      4.02989323470711
  C           2.73949532656645     -2.36592596676405      4.14939892946333
  H           1.54899100743953     -2.67250810018031      2.40150612134663
  H           4.59619893395872     -2.38591086218327      2.05190035490407
  H           2.49267188295166     -4.29268205439314      0.89966357352180
  H           4.29059296110347     -4.29377797518695      0.55368160561822
  H           0.62213319167050      0.40716797161294      1.06636033308202
  F           2.78810567519150     -3.68551078721178      4.44049379391517
  F           3.94312865914782     -1.85246894777073      4.50129225309709
  H           1.97202924293680     -1.89779681039262      4.78100537840068
