20
Coordinates from ORCA-job NEB E -37.212406244830
  C           0.78207789881241     -0.60873576885686     -0.73471682741004
  C          -0.49456262050933     -1.16303154981980     -0.73866953153389
  H           1.53439968135933     -1.12707489409747     -0.16140655119680
  H           1.14697815251575     -0.17846216693144     -1.65613881989801
  C          -1.47434736991705     -0.82692180915996     -1.83686840889888
  C           0.57419216500556      0.87061255560011      0.49858157193017
  C           0.04159317012070      0.21052712454841      1.59956495833365
  C          -1.21438122635303     -0.47216816372429      1.45907151886079
  O          -0.99952945660898     -1.60762102285061      0.38801605307099
  C           1.93538274958685      1.50432267701505      0.59756270675095
  H          -0.11723168654766      1.43270133982372     -0.11998073332236
  H           0.71865060445078     -0.14001910239809      2.36664130425457
  H          -2.01972908526227      0.11912950041463      1.02716113617424
  H          -1.54455080936979     -1.03181235203793      2.32740698029374
  Cl         -2.10797425820761      0.86751372318123     -1.69934058920443
  Cl         -0.71495246197468     -0.96380373191661     -3.43114700144940
  Cl         -2.86874204008443     -1.91492114716347     -1.76660093714631
  H           2.35157821773630      1.69145366705298     -0.38854334244443
  H           2.62310881035655      0.87693288549719      1.15909935429388
  H           1.84803956489061      2.46137823582322      1.11030715854159
