20
Coordinates from ORCA-job NEB_reactant E -37.237434516720
  C           1.57272857111539      0.17802998532878      0.03083897312954
  C           1.61385638378717      1.47384873088512     -0.25256647908366
  H           1.97215355929079     -0.21791509674582      0.94490963389937
  H           1.13462231179855     -0.52421981245222     -0.65002777828614
  C           1.06821376705413      2.07635164776311     -1.52448198886321
  C           3.12803800924876      4.60371878594215      1.92470448809690
  C           3.21516810781096      3.38103669842884      2.41877426464073
  C           2.70602818622400      2.14168216225687      1.74597863210499
  O           2.12899431931049      2.47255592124855      0.49825012074416
  C           3.63830135926650      5.82601996275021      2.60695831297211
  H           2.65997085326985      4.75750666797118      0.96317370650267
  H           3.67829497885047      3.19555387271579      3.37872068818563
  H           1.95483749974246      1.65456461064846      2.38686401565232
  H           3.53539411551116      1.43310159654567      1.59733487128009
  Cl          2.39369939140504      2.89499428484858     -2.39274061840887
  Cl          0.33926687721297      0.89790544876142     -2.60902375163635
  Cl         -0.16455569446063      3.29542685515284     -1.10901530743797
  H           4.37571253038397      6.32450647702163      1.97880409124322
  H           4.09553625482085      5.58123568534997      3.56253352993711
  H           2.82223861835712      6.52809551557886      2.77471059532735
