15
Coordinates from ORCA-job NEB_product E -30.190256864650
  C           2.74084902039304      1.91702678096192      0.92097974614512
  C           1.52692721399449      1.85630152418120      0.04113993989024
  Br          3.49271897164311      0.09786307639191      0.87121757002140
  H           3.51336948708215      2.55571565231454      0.48569306992853
  I           2.03282469264199      1.80197503010807     -2.05973750502523
  C           2.39276514090633      2.35959277707032      2.34975067064132
  C           1.45738732774761      1.41992973135578      3.06861775017460
  C           0.33896093662452      1.81063200381249      3.64627602902484
  O           0.39837631921375      1.82166000463143      0.38555421503945
  C           3.61817108378064      2.47231474147235      3.11823071764621
  H           1.93643555681650      3.35750407645115      2.28841171542377
  H           1.77970577262273      0.38859041050198      3.10709742597512
  H           0.00591493803826      2.83539198690145      3.62392087995061
  H          -0.29718489173011      1.11213462771629      4.16008703022635
  N           4.58607843022500      2.54146757612911      3.71896074493763
