23
Coordinates from ORCA-job NEB E -40.744026929490
  C          -0.03124501084126     -0.21548426470538     -1.30839164282458
  C          -0.69798213208189      0.92259703004574     -1.72049678796575
  C          -0.73564207930061     -1.54982812391694     -1.36377392661269
  H           1.01491765341392     -0.30985715604444     -1.56559203011722
  Cl          0.37536628105039      2.26072406155955     -2.19474667449005
  C          -0.02195006718176      0.19220411799408      0.78990501264575
  C          -0.82772608594754      1.31106863084724      0.89486698397444
  C          -2.12274354168512      1.30007371339614      0.34234254364466
  O          -1.86272785803736      1.24383696803780     -1.37752770592733
  C           1.42632758295184      0.28045631049711      1.18790666215115
  H          -0.48349139366408     -0.77320097432636      0.94653179082967
  H          -0.34038298808637      2.27246826487471      1.00661110413208
  H          -2.71255999834521      2.20409831886001      0.39989346340380
  H          -2.70054586454092      0.38839877008523      0.42093443183806
  F           0.00618199699179     -2.50993565641424     -0.75775891642505
  F          -1.93764614617182     -1.56981567955143     -0.74658121810834
  H          -0.89931823601636     -1.87861473962904     -2.40524146665238
  C           2.14892911358047     -1.06042086661817      1.17650543389484
  H           1.46381164022652      0.69161509759201      2.20165166827902
  H           1.94092346696510      0.99318799095176      0.53900096713003
  H           1.64478061225861     -1.77032328321855      1.82774244438643
  H           3.17022703365668     -0.93805132568480      1.52876450472461
  H           2.18249602080499     -1.48519720463204      0.17745335808883
