23
Coordinates from ORCA-job NEB_product E -40.800719703760
  C           2.64282801951624     -0.13956789223099      1.64657034226597
  C           3.02172405331871      0.99453010725732      0.73520733516158
  C           1.32843082954728     -0.74011177612116      1.13681461443863
  H           3.40517017622979     -0.92112609952049      1.62388619756795
  Cl          4.71843781097472      0.96926367644679      0.27123534102174
  C           2.45668689999232      0.35255203825608      3.10964887112063
  C           1.33333379790438      1.34404899730513      3.21041974198103
  C           0.23985026729296      1.14067174012317      3.92093600582969
  O           2.30922627182791      1.85460585679597      0.33655801677047
  C           3.74445056341376      0.96675590690604      3.67792453097316
  H           2.20077096633828     -0.53176584378934      3.70309581942882
  H           1.47616833571885      2.27105055644556      2.67286183346070
  H          -0.53807333244586      1.88107566457767      3.99067601796950
  H           0.07755514887584      0.22368603377569      4.46375908096459
  F           1.51410043856713     -1.30584238876391     -0.07853204740199
  F           0.91628705897512     -1.73686143808066      1.95154202791964
  H           0.51820632574892     -0.00169969651427      1.05504743156821
  C           4.89329501093372     -0.02809705283373      3.79475423018117
  H           3.50582141350741      1.35067056904300      4.67235703494654
  H           4.05019385733755      1.81521034041718      3.06316990315020
  H           4.57475987896373     -0.91817804901764      4.33279593284054
  H           5.71674753648351      0.42382827603000      4.34172021955436
  H           5.26562867097775     -0.32289952650739      2.81775151828685
