16
Coordinates from ORCA-job NEB_reactant E -31.584442678880
  C           1.71659887350592      0.10898331634574     -0.12077623649504
  C           1.17837311476003     -1.04558993561954      0.32125512839229
  O           2.73007666082094      0.14346885393290     -1.01473833343180
  H           1.32859558894813      1.04393326624054      0.26156882800932
  C           0.11908985641730     -0.95602060191399      1.25267565314989
  C          -0.56425360841745     -4.32586027409032     -1.57067199566873
  C          -0.38838395564012     -3.45759204938460     -0.59418278325754
  C           0.87023020264012     -3.39906031469677      0.21996209264176
  O           1.65608502305683     -2.26279621901640     -0.08788406070498
  F          -1.68796678272575     -4.35582882142146     -2.29873685857070
  H           0.13601483799468     -5.09083417430916     -1.87517731794478
  H          -1.15347532027232     -2.72705853532315     -0.37289138243929
  H           1.51637295929827     -4.24883820783982     -0.01094614433252
  H           0.61889415784879     -3.41179416824142      1.29019047386086
  H           2.99016816253015      1.05034110962367     -1.20499838162096
  N          -0.74741977076551     -0.88465324428621      2.00295131841221
