16
Coordinates from ORCA-job NEB_product E -31.576092543020
  C           1.44111260755644     -1.25482570010008     -0.73375694856530
  C           1.73706524087496     -1.61525983016801      0.72134893802904
  O           2.64076971721316     -1.19979074856122     -1.44259345233965
  H           0.90352198027988     -0.29133912858559     -0.77485180868908
  C           0.75559899346389     -1.03589071472752      1.62746958688331
  C           0.50092085118565     -2.35585758625606     -1.29109317908329
  C          -0.74543200287427     -2.50717166852886     -0.47761808742476
  C          -0.96960188116234     -3.52869954933176      0.32713167188583
  O           2.64259640579273     -2.30786617548535      1.08691509219282
  F           0.18079796785127     -1.97492184095893     -2.58420966240632
  H           1.06068357038685     -3.29557535300194     -1.37516963499641
  H          -1.46319457037933     -1.70774183333247     -0.59506193848904
  H          -0.25953070477122     -4.33167858166086      0.44014331636676
  H          -1.86904102082125     -3.59593137232334      0.91267719656847
  H           2.44794347584614     -1.16548258153234     -2.38837057921273
  N          -0.01891063044254     -0.56876733544566      2.32833948928035
