24
Coordinates from ORCA-job NEB E -42.966083381950
  C           0.46425250676672     -1.72908546515541      0.90446978193610
  C          -0.01165203093837     -0.65788900967637      0.11030177392585
  C           0.96691868266945     -2.92147982490476      0.07485258967336
  H           1.28892573192331     -1.38371124490581      1.53360660261688
  O          -1.27479717225690     -0.27228213755265      0.17550017819031
  C          -1.16137960119285      2.74636417452537     -0.44237913360336
  C           0.04878547195934      2.30131334370299     -0.80703135536980
  C           0.23326136731361      1.06107254651464     -1.59030248543073
  O           0.73490811436155     -0.02749425654801     -0.72656266012198
  C          -1.42833617188978      3.95879507985980      0.31309569757958
  H          -2.05279605071742      2.23550065967534     -0.78450021963010
  H           0.95128242015996      2.79055617455334     -0.47011500966240
  H           1.02329776975249      1.16430815055893     -2.33346541729808
  H          -0.69845126096856      0.72392128001538     -2.04955171904913
  C           1.32030474719762     -4.07826036630473      0.99913863809484
  H           1.84406017918705     -2.66849067096226     -0.53762333393347
  H           0.16985096084712     -3.23451192646733     -0.60590689715739
  H           2.13927702618252     -3.80103113491789      1.65787235513242
  H           1.61996435145126     -4.94727344283140      0.41703440082050
  H           0.46406455861531     -4.34548342654009      1.61262054356126
  H          -1.74969617433667     -0.81572978458607      0.82632440955312
  Br         -2.04037482640553      5.46439548919892     -1.08145675235321
  Br         -2.91753858596801      3.73536735355974      1.53213920808105
  Br          0.06586798628678      4.70112843918833      1.27193880444438
