15
Coordinates from ORCA-job NEB E -27.024261712440
  C           0.97562099242685     -0.95477929862397     -0.29306608362462
  C           0.67638783354755     -0.25741813819215     -1.46793398238194
  F           1.99422916892391     -0.48946688125314      0.48736651486624
  H           0.98232434355580     -2.03997138352066     -0.29690057132241
  H           0.09878837296907     -0.81351220620355     -2.21599005474708
  C          -0.49579633641007     -0.40610284798406      0.89394747218578
  C          -0.99290756154723      0.80466025859241      0.36865093459992
  C          -0.07685259269235      1.76142204573637     -0.06373403110480
  O           0.64474205209794      1.01102666861273     -1.49932716012616
  O          -1.38992442103269     -1.43524687494464      0.97456186496236
  H           0.19786987112319     -0.32917291258538      1.72975828384833
  H          -1.94889048705057      0.73782740253374     -0.13358047259158
  H           0.83443450704735      1.88967017965439      0.50693292091310
  H          -0.44414671859839      2.66404002904078     -0.52688657040016
  H          -1.05587902436039     -2.14297604086288      1.53620093492302
