15
Coordinates from ORCA-job NEB_reactant E -27.071528324160
  C           1.92528722347969      0.06880121643772      0.16113630257970
  C           1.06999368602210      1.00705533656171      0.54584817783698
  F           3.05430088305043     -0.21989245956942      0.83518543001400
  H           1.80349543977339     -0.53051708791193     -0.72536095239490
  H           0.18258114015644      1.17295301189934     -0.05629070574460
  C          -1.11365299339846      1.74990900383222      4.08469211778426
  C          -0.86800425111526      1.64821054835353      2.78558876933026
  C           0.10883573428102      2.52316309455137      2.06091690845061
  O           1.24909102270864      1.80099236606829      1.62371208840413
  O          -1.96572796509883      0.98463878838271      4.79522571751504
  H          -0.64902161800301      2.50222076696684      4.70564865469420
  H          -1.34310189608445      0.87368144580852      2.19589399738877
  H           0.49656857744612      3.29495156287655      2.72821270375263
  H          -0.37616004408056      3.00161089220907      1.19659191316129
  H          -2.35498493913726      0.30452151353350      4.23009887722761
