15
Coordinates from ORCA-job NEB E -31.278379115450
  C           1.24174332487785      0.55147801568811     -0.53576131199999
  C           0.52509936508702      1.30312667456535      0.40261271852774
  O           0.91970110895317      0.61630952535932     -1.84360486680412
  H           2.30196760185590      0.37957013953624     -0.38989950920950
  F           1.10253791800263      1.35194766215901      1.65276291972520
  C           0.42455060279557     -1.21819217365955      0.07183242427939
  C          -0.93196054255553     -0.97877942164752     -0.08758371062654
  C          -1.54988811004094     -0.03577701616314      0.75127815671521
  O          -0.72162753506197      1.45174457593638      0.34570432397976
  F           1.03004581533715     -2.06193782363027     -0.78005072659020
  H           0.89570837727540     -1.25411528140526      1.04926967954982
  H          -1.37078598990618     -1.21273460472851     -1.04706660407644
  H          -1.29452129656556     -0.04290323184118      1.80343266976646
  H          -2.57554217964166      0.23266473718264      0.54737506818243
  H           0.00297153958716      0.91759822264837     -1.94030123141921
