15
Coordinates from ORCA-job NEB_reactant E -31.301171417970
  C           1.95535576212457     -0.02189596546640      0.03410029784423
  C           1.24034291402003     -0.81418094349170      0.82448650429450
  O           2.27253340108731     -0.31514508464764     -1.25500950096576
  H           2.33575492398037      0.92357395777439      0.37795125031016
  F           0.96944073447326     -0.44769323593094      2.09671647226623
  C          -0.27907224773271     -5.19147578999589      1.22007985854026
  C          -0.51082584520170     -3.98684463138353      0.73630124328682
  C          -0.02529627896758     -2.73792772112626      1.39321257229114
  O           0.74179440929970     -2.01856528261890      0.43537009637589
  F          -0.74342305291637     -6.29269345697158      0.61765564120257
  H           0.26514031201847     -5.42333285877606      2.12466630159661
  H          -1.06132821460147     -3.86406128604899     -0.18406145015832
  H           0.58740818905662     -2.96999099616117      2.27280434773372
  H          -0.88107692489539     -2.12603235062631      1.71253381505267
  H           1.90085191825490     -1.17713435452901     -1.48100744967074
