19
Coordinates from ORCA-job NEB_product E -44.441164673520
  C           1.68616427506193     -1.72826639763445      1.25039792913247
  C           1.36390885840656     -0.26612058714523      1.38402837824548
  C           1.38903085002007     -2.15324040390857     -0.20037196856902
  H           2.77241665969029     -1.84370572476455      1.41068405963342
  Br          1.54737901565698      0.41196120082618      3.20888271139840
  C           1.00640410120713     -2.64301276849523      2.28617106631817
  C          -0.42259946923649     -2.98679301204352      1.99037006652673
  C          -1.43629308125557     -2.40318722097091      2.60084697958104
  O           1.07929893098604      0.48859730712105      0.52408309171294
  N           1.82745251804442     -3.90483180983471      2.42354511405478
  H           1.07462708693937     -2.16438240354423      3.27260251295945
  H          -0.58138736150298     -3.74755191133012      1.24036373222571
  H          -1.29475906743395     -1.64807965648923      3.35752441516969
  H          -2.45288713081299     -2.65686510083833      2.36136568929852
  F           1.63083688671426     -3.47228377263468     -0.35093820256904
  F           0.09334301059696     -1.96315308045140     -0.52000396010851
  H           2.00136059973817     -1.60174854640576     -0.92947124812250
  O           1.22912637956582     -4.90546424416274      2.69708709400839
  O           3.02017693761398     -3.79267186729356      2.29643253910388
