19
Coordinates from ORCA-job NEB E -49.249267276990
  C          -0.00105605170222      1.09224063774487     -0.26469328565574
  C          -1.26878619819876      0.42101199007864     -0.68003079430143
  F           0.77194971812683      1.27930544872294     -1.39944841735360
  H          -0.22878623794290      2.10969088862369      0.08493473434667
  N          -2.14710284740981      1.13603344856628     -1.50408025706462
  C           0.79631756189350      0.31041491668160      0.79772029600889
  C           0.08535800159489     -0.90201128399952      1.26299329299174
  C          -0.91643042299033     -1.59146986808368      0.45779681637392
  O          -1.61751093167764     -0.84392258812925     -0.47308863208190
  C           2.19334461703750     -0.10961131915529      0.26117082720217
  H           1.02568972081673      0.96765707276607      1.64713770150823
  H           0.52376505740220     -1.45317304535655      2.07667184607213
  H          -1.67870749891374     -2.06560381753562      1.09160393952925
  H          -0.43977854963247     -2.42241160998033     -0.09305760133814
  O          -3.11627438835117      0.54288389653161     -1.95067192296421
  O          -1.90066198900434      2.32477036149857     -1.67733110274640
  F           2.10397545377782     -0.94256437633076     -0.77666938045853
  F           2.95750479891785      0.91926841089263     -0.08438730378550
  F           2.85719018625606     -0.77250916353589      1.22342924371707
