19
Coordinates from ORCA-job NEB_reactant E -49.296768129940
  C           2.32311713765473      0.53161718848768      0.57163540535538
  C           1.45830987785396      0.54242000088039      1.59111855217841
  F           3.21244777794665     -0.44052585738973      0.35188193462851
  H           2.36071008785821      1.32808062691713     -0.15606630531761
  N           0.55540023655722      1.69726764494418      1.69016537705654
  C           3.85470092597989     -0.04645951778787      3.63696425202924
  C           3.42994474751322     -1.20288573886663      3.15547814140971
  C           2.02321578915940     -1.47098204189702      2.72069989455230
  O           1.22216525955401     -0.31054942600201      2.59772361131141
  C           5.27321890054582      0.18796504994704      4.04975967057392
  H           3.21743230182757      0.81424630735918      3.77606872871714
  H           4.10422164946517     -2.04072938708276      3.05014971059368
  H           1.51841764447671     -2.07258805320730      3.48407843359290
  H           2.02849282721097     -2.04093890020727      1.78405189386012
  O          -0.14874331822603      1.74697771164059      2.66211978314669
  O           0.59500062034439      2.50595101096552      0.79333308144130
  F           6.04904700139403     -0.89631322613873      3.93005332213757
  F           5.84741437376468      1.15590702749073      3.31324661929731
  F           5.36088615911940      0.58663957994687      5.32893789343548
