22
Coordinates from ORCA-job P E -29.028380458570
  C          -1.69939273387233      0.48982461315971     -1.79703898153244
  C          -0.62120349330456     -1.44496160508465     -0.16558974940544
  C          -2.10937115141959     -1.37331251998555     -0.29486342664148
  C          -2.62963555811942     -0.45018650211060     -1.08742715593352
  C          -0.72650380688607      1.06803461990630     -0.75605332921806
  C          -0.04460302031922     -0.03018567358950      0.09117494201001
  H          -2.71273596933305     -2.07269924858062      0.26173142470966
  H          -3.68924199837662     -0.31041012393268     -1.21788938733460
  N          -2.43689573190448      1.56809218480032     -2.43414618158914
  H          -0.31829336259087     -2.11481153214597      0.63956907735794
  H          -1.10772322152488     -0.08823404117037     -2.53923135744683
  H          -0.19459835657133     -1.82924475675267     -1.09865075429404
  H          -1.30104742583771      1.73077093740224     -0.10713125256852
  H          -0.17114338416808      0.20514369201793      1.15360066986549
  H           0.03203388029688      1.67067011604460     -1.26262637027666
  C           1.37101826663945     -0.05024301662711     -0.18639828641327
  C          -3.06450710154585      1.17475201377981     -3.67930498359804
  H          -1.81175685614255      2.34977896798474     -2.60830620167488
  H          -3.79172177413391      0.38823848087971     -3.48145202135130
  H          -2.34886152797326      0.79756252078815     -4.42682022495757
  H          -3.58745858554278      2.03352052638038     -4.09575866993536
  N           2.48571291263019     -0.06639965316417     -0.44121777977195
