20
Coordinates from ORCA-job NEB E -41.989679816680
  C           0.88429782286875      0.47927356710738      0.12602598708328
  C           0.02237396879802     -0.10854092806172      1.08045036410813
  C           0.68855954293926      1.94068913281044     -0.20771296822651
  H           1.94824492047813      0.28463376429659      0.23626718049491
  C           0.51827824717316     -1.24520598572871      1.92478679884762
  C           0.34094527016702     -0.45001058935240     -1.44143421578812
  C          -1.03697741822862     -0.22159721087588     -1.51333268350992
  C          -1.82804997635574     -0.65014287536009     -0.41079000385587
  O          -1.25765502981180      0.05090381272700      0.93229807617290
  F           1.10731341594401      0.03676734815207     -2.43448314913211
  H           0.71895505503458     -1.43091686304896     -1.15153408987008
  H          -1.37713935208910      0.60241679944327     -2.12043877408529
  H          -1.72481854211053     -1.69415581606200     -0.12223356976089
  H          -2.86055764373860     -0.32441058832426     -0.42074266674161
  F           1.47468135783371      2.35332524048324     -1.20947851759880
  F          -0.55546586215775      2.30352153946969     -0.51726117685757
  F           1.04202708658004      2.68944451506699      0.86023137048601
  H           0.52768312503155     -2.16603348264207      1.33456444042208
  H          -0.15535518232396     -1.39277359730387      2.76456713876981
  H           1.52265919396787     -1.05718778279670      2.29025045904203
