20
Coordinates from ORCA-job NEB_product E -42.033700313890
  C           1.66583807743928     -1.49070670403416     -1.61790467291170
  C           1.06993140700088     -2.20563978849283     -0.38546128849969
  C           1.54025986700111      0.02692667143396     -1.51666964568940
  H           2.74153241952038     -1.71103371039596     -1.64367325095428
  C           1.45847724767927     -1.64090094713679      0.94468674041350
  C           1.04843321914006     -2.04077267736509     -2.92461151546451
  C          -0.25245083152753     -1.38901044823280     -3.29325659843767
  C          -1.42252335062278     -1.82366331954219     -2.86746190724701
  O           0.36511765136521     -3.16745271277910     -0.51678479439879
  F           1.96744708905356     -1.86311005736496     -3.93737934832511
  H           0.92516654078240     -3.12484965281059     -2.80511339493821
  H          -0.15829488543736     -0.52673504359767     -3.93758322043483
  H          -1.50628767185962     -2.68535665798552     -2.22641123610783
  H          -2.33658774104622     -1.32411500788170     -3.13488052575981
  F           1.77965681198924      0.65039599743444     -2.66992999952491
  F           0.32419724606488      0.42385248263314     -1.10830070780867
  F           2.41395772272537      0.54069011105469     -0.63139746373904
  H           2.52072763846124     -1.41521607157367      0.98859343137301
  H           1.19042718045412     -2.34687616745242      1.72659998333081
  H           0.91157436181652     -0.71402629591079      1.11523941512416
