24
Coordinates from ORCA-job NEB_product E -48.727324311350
  C           3.26922963819748     -1.17219416733218     -0.44677771695209
  C           2.17607718405042     -1.17120986535730      0.62075193674856
  C           2.93934097134510     -0.12815791392505     -1.51244240021840
  H           4.20387927575874     -0.86682221057037      0.03696556862659
  O           2.49559514477954     -1.97395439389164      1.63375239830768
  C           3.42875343692483     -2.63769482228714     -0.92008195597527
  C           2.12657404852151     -3.18697226825555     -1.43740566944362
  C           1.47193940535415     -4.16629051219841     -0.84424234818082
  O           1.16196139880710     -0.53155686769386      0.56476379483409
  C           4.54993717598266     -2.86114854646424     -1.93893129538667
  H           3.71933080078686     -3.21183168346192     -0.03256765633588
  H           1.73809900079362     -2.72967589880944     -2.33470641127280
  H           1.84533532822391     -4.64336448590023      0.04712470891560
  H           0.53561464463645     -4.53242881022806     -1.22747520779896
  F           4.09101072172702      0.39851496968391     -2.03582540350831
  H           2.38989681149701      0.70193768065028     -1.05639420427745
  H           2.36058990094615     -0.53319425441930     -2.34454580333864
  C           1.53718703985292     -2.07300958929788      2.68258768785766
  H           1.96136413308089     -2.75293849789747      3.41629687946095
  H           0.59452025077009     -2.46159149002139      2.29356010025684
  H           1.35840105673830     -1.09168629436992      3.12495135499575
  Cl          4.78833277485337     -4.62686286136968     -2.10716964365159
  Cl          4.19452936333376     -2.22445603059120     -3.55187239269197
  Cl          6.08230049303815     -2.16071118599199     -1.37331632097124
