17
Coordinates from ORCA-job NEB_reactant E -39.254131493310
  C           1.76882179689374     -0.17143044800456     -0.00552098865991
  C           1.59793222856954     -1.48789261561191     -0.07499304010913
  I           2.01988110403492      1.19692148637556     -1.57595182761136
  H           1.74478179283725      0.32971019950594      0.94551378904651
  C           1.33298653950579     -2.32072712282757      1.15191888873726
  C           2.36703839381399     -3.83706257131110     -4.06656743772709
  C           2.71553359031180     -3.45624852241105     -2.85304081980643
  C           2.36039820494333     -2.11197520561248     -2.29434025268305
  O           1.60130131562021     -2.34894432949375     -1.11361100893264
  I           2.87281901975265     -5.70599671654334     -4.86777843683262
  H           1.81588627209277     -3.21156564292062     -4.74900696204721
  H           3.25839605445782     -4.10793200586865     -2.18376253959976
  H           1.77216501619671     -1.53395127217327     -3.01436778208206
  H           3.27832132854678     -1.56614993911655     -2.04511487305082
  Br          1.17207921028738     -1.36724335105144      2.81892859277566
  Br         -0.31985353653983     -3.32727321559174      0.85978897697477
  Br          2.80421166867516     -3.60783872734347      1.31880572160788
