17
Coordinates from ORCA-job NEB_product E -39.268661924570
  C           2.14994822439696     -2.07919369446867     -0.79059651452736
  C           0.85781271697454     -2.57284278604988     -0.21492882312736
  I           1.81778265758033      0.08366252524262     -0.79449610422961
  H           3.01330050162857     -2.25774566964743     -0.14888493029752
  C           0.80032002295062     -2.78285152014283      1.29282426277125
  C           2.37415231419487     -2.53992124258418     -2.21134978283809
  C           3.54852350718423     -1.89679069298427     -2.85477396028773
  C           3.50608632913969     -1.35029668367617     -4.05685461478002
  O          -0.10680633942659     -2.83256223664753     -0.87626855076271
  I           2.69791112228763     -4.71083695336263     -2.15084561516283
  H           1.46534613042109     -2.40779262662385     -2.80065501216002
  H           4.46316831948897     -1.90917980638413     -2.27638003160969
  H           2.60412586609405     -1.34050542868874     -4.64651947824507
  H           4.37264893053184     -0.88785451266700     -4.49461813218022
  Br          1.88956129320146     -1.60826529155406      2.36971269645182
  Br         -1.03821226501336     -2.69683281904408      1.88991417221895
  Br          1.47933066836509     -4.61929056071718      1.51872041876618
