19
Coordinates from ORCA-job NEB_reactant E -36.758696597330
  C           2.29744329125914      0.44076058324113      0.52296775486992
  C           1.63256560984271      1.61925587787897      0.30378646533536
  N           1.93572807359955     -0.62943181267455      1.32718244713393
  H           3.23499940653336      0.28920068835727      0.01191560640750
  N           2.08600193470427      2.44848091863360     -0.67745132384547
  C           2.49837999434338      2.65593913499947      3.15668607321522
  C           1.48858187917995      1.79762855131896      3.22458638362441
  C           0.29953198061624      1.84469443220020      2.31199855754801
  O           0.62393754605902      2.18530539098236      0.95965285484512
  O           3.60283457136303      2.64426068443503      3.92772512561725
  H           2.52743045573317      3.46700927576915      2.44188214989957
  H           1.49761209255510      0.99348674957617      3.94641820605905
  H          -0.39970127263461      2.63551463426155      2.60339850897027
  H          -0.21573291170961      0.87928582561915      2.33618104509358
  O           2.82042228163931     -1.41671083523424      1.63441758443379
  O           0.76268018464142     -0.77947976837133      1.65485336618395
  H           1.53386614112976      3.26970539575701     -0.86034841200067
  H           2.62400539039812      2.06783517985225     -1.43504859439774
  H           3.57181335074669      1.89895909339781      4.54229620100696
