19
Coordinates from ORCA-job NEB_product E -36.767802767150
  C           2.71453872011743      1.45871480357889      1.26022104080123
  C           1.73520252385627      2.00623489690698      0.17493825222106
  N           2.86001513438860     -0.00113972966705      1.20578664999806
  H           3.69971667704674      1.86794641429217      0.99999685454330
  N           1.86293096876172      1.42508310965524     -1.02381591618544
  C           2.32021634249789      1.96959845702434      2.67563357880125
  C           0.92987350065826      1.54905348330499      3.07394365267571
  C          -0.06790787609095      2.39590574562083      3.23340527489017
  O           0.98752316957483      2.91580348684305      0.42441819579440
  O           3.28637596741404      1.58025115200919      3.61746913704733
  H           2.36555967547367      3.06295880272475      2.62996936496018
  H           0.80133317319105      0.49188781748635      3.26329906972875
  H           0.04833112313982      3.44929076462725      3.04678560403382
  H          -1.04591548254762      2.06237541179126      3.53500170729914
  O           3.30451200317182     -0.46880710889174      0.17536477919680
  O           2.55019262569731     -0.65754517354835      2.16888680254687
  H           1.25936374797315      1.72868002645449     -1.77003178777971
  H           2.48795868093292      0.64436175112487     -1.17412459251844
  H           3.14107932474304      0.64784588866249      3.83385233194552
