16
Coordinates from ORCA-job NEB E -29.991191396350
  C           0.51861826202255     -0.01993237087472     -1.28443605748085
  C          -0.81718689338985      0.06534508924069     -0.85449060114280
  Br          1.13903961400378     -1.74540690418920     -1.81701416750708
  H           0.91371302979054      0.74917282728103     -1.93720698488242
  N          -1.43872922869292      1.30064686333646     -0.87451251934202
  C           1.36398376426257      0.26842010793046      0.48943723780805
  C           0.82042768329661     -0.74731889203022      1.26555958983733
  C          -0.58704035940861     -0.72819318887162      1.44705109790165
  O          -1.28698516632129     -0.83007690847730     -0.05331967921470
  F           2.67930385309120      0.23343414663749      0.20838924862238
  H           1.03522522132504      1.29957417314981      0.60769819633804
  H           1.34279857001177     -1.69164272855822      1.28789682411802
  H          -1.01797780032610      0.21539412058031      1.77140136706631
  H          -1.02322444834128     -1.58680404411037      1.93948982687744
  H          -2.39212166727867      1.30290219973161     -0.54714488600851
  H          -1.24984443404533      1.91448550922381     -1.64879849299081
