16
Coordinates from ORCA-job NEB_product E -30.049328799450
  C           2.50891653352866      1.29841367934368      1.41937522269043
  C           1.48918644100149      2.42682156011199      1.21644297280866
  Br          1.63942384305493     -0.34167576265019      0.82374206489541
  H           3.38805847427281      1.43183682430222      0.78461285290880
  N           1.43420051521037      2.88363972390733     -0.05027253673509
  C           2.93523976141088      1.19052295618300      2.88637367152893
  C           3.69513938679652     -0.06442673860592      3.18632800827179
  C           3.19460445330050     -1.07241777854475      3.87381378641774
  O           0.79778793177735      2.84110277214794      2.11177753726621
  F           3.75406325979547      2.28266707898100      3.11861640778726
  H           2.05838966677652      1.31179127924167      3.53478497067351
  H           4.69992286873437     -0.08745580452438      2.78743717944915
  H           2.19370600239904     -1.04686115646008      4.27221656522621
  H           3.76094728708451     -1.96906763299392      4.05341589687757
  H           0.74523544500913      3.58271374353048     -0.27502718460921
  H           1.95407812984745      2.46699525602993     -0.80243741545737
