17
Coordinates from ORCA-job NEB_product E -29.324904872840
  C           1.92499175441132     -1.09607428647606     -2.16517553259777
  C           0.62495405536449     -1.82000534509480     -2.04260206611910
  I           1.66319646633735      0.58133280170125     -0.80740338678686
  H           2.74863932511823     -1.67412276497233     -1.74842710442238
  Cl          0.63648317345781     -2.98523736676718     -0.70756172885242
  C           2.21507760674508     -0.63549930451012     -3.59325385554740
  C           3.43620157984124      0.23572482788480     -3.62539671015904
  C           3.44078463588657      1.48841091947581     -4.03891628109337
  O          -0.34901484511428     -1.67446611200423     -2.70010087493755
  C           2.42939693961867     -1.87313769320434     -4.47083721174080
  H           1.35139944789424     -0.07595491553274     -3.96607456507444
  H           4.34776866126129     -0.23718930942086     -3.28318123237774
  H           2.54320987670113      1.97552940570052     -4.38280618474734
  H           4.33937572916902      2.08020793815990     -4.04834030762936
  H           1.53601028308786     -2.49230448433413     -4.49163363149199
  H           3.26117141565963     -2.46905702435713     -4.09952208264306
  H           2.65625389456035     -1.56155728624837     -5.48736724377937
