17
Coordinates from ORCA-job NEB_reactant E -29.306910581630
  C           1.04362457061247     -0.47940526731112     -0.67140807184026
  C           2.16988130962684     -0.19764287034278     -1.31453893907562
  I          -0.70718657473625      0.55848108728848     -1.15571333280007
  H           0.96578443553545     -1.20359800073663      0.11390558245364
  Cl          3.60184656855069     -1.10514631705267     -0.91775490740659
  C           2.18828177088569     -1.14857754520007     -4.32964223757614
  C           3.25045932204684     -0.38768386098945     -4.12717877502697
  C           3.31241957015147      0.76642616299227     -3.16781332877907
  O           2.26085331554032      0.77832494499123     -2.21451392505487
  C           2.14031659592243     -2.29511280518131     -5.27929224013245
  H           1.27013724601440     -0.95701297227389     -3.78937531829189
  H           4.16971685027335     -0.56067682899158     -4.66945186842362
  H           3.19631449127540      1.71478498960498     -3.70318357599538
  H           4.28291477346911      0.77616461960270     -2.65531990065565
  H           1.90957655820559     -3.21541756724569     -4.74331893216649
  H           3.08826791455423     -2.41657558913945     -5.79721353364898
  H           1.35159128207197     -2.13663218001502     -6.01368669557960
