18
Coordinates from ORCA-job P E -31.691341474110
  C          -1.27972412569575      0.64138285953234     -2.10108498865776
  C          -0.53903669650935     -1.73288044293874     -0.46887286596158
  C          -1.15388177992562     -1.81441184328662     -1.83228589004592
  C          -1.47652681904566     -0.75880003432722     -2.56335884421185
  C          -1.02414419144932      0.73458765740941     -0.60308762821997
  C          -0.01601505356518     -0.33476672121325     -0.17564217519854
  H          -1.31182867943603     -2.80936691095477     -2.21916637885600
  H          -1.88163053640252     -0.88379443899491     -3.55644392592960
  I          -3.03987919675902      1.84885477514384     -2.59346258601483
  H          -1.28305967371950     -2.00434364741537      0.28572881065131
  H          -0.47907070394776      1.11956602492578     -2.67087740120124
  H           0.27465007125927     -2.45868720824101     -0.40044592961367
  H          -1.95040324555627      0.55844029173605     -0.05307576733228
  H           0.21490117252347     -0.21005425663931      0.88835301827510
  H          -0.65133701905966      1.72728760061071     -0.34272152199791
  N           1.26772569558293     -0.08055518492132     -0.89315448545764
  O           1.75792068097871     -0.97501524327957     -1.53309709675143
  O           1.73063010072725      1.02804672285395     -0.77181434347619
