22
Coordinates from ORCA-job P E -48.512645510070
  C          -1.34342959884071      0.44159478233161     -2.28498507420015
  C          -0.01246539500355     -1.72634495727854     -1.23581110665930
  C          -1.32108904259535     -1.94740843453666     -1.92533580083247
  C          -1.95539518359086     -0.91826030125646     -2.46098294918376
  C          -0.99773684210617      0.60857510973319     -0.79529672323554
  C          -0.05984094951299     -0.50407390316138     -0.29212352390539
  H          -1.69993637756682     -2.95367939527260     -1.99386200170345
  H          -2.89315450705951     -1.01003652187682     -2.98114650312002
  C          -2.26083346897451      1.54989356705605     -2.77881847280294
  H           0.28468521586213     -2.61054301945836     -0.67477843342929
  H          -0.41781178327393      0.50773443408166     -2.86914219295828
  H           0.74884380952226     -1.54499739949294     -2.00013923160101
  H          -1.92803894113084      0.57169871322623     -0.22876774267649
  H          -0.41805543457110     -0.84179981338550      0.68462111707207
  H          -0.54389338521896      1.58455621444917     -0.63008240705453
  C           1.35092296278496      0.03635847913181     -0.05707605957556
  Cl         -3.80897710162881      1.54635854474652     -1.90738108778989
  Cl         -1.50434895999568      3.14741810244174     -2.57071372538319
  Cl         -2.59883541303092      1.33189245247300     -4.51436279216075
  Cl          2.03812730329558      0.74007877837109     -1.53768109150639
  Cl          1.33542996059851      1.30319726347305      1.19868077064016
  Cl          2.43989313203727     -1.25430269579589      0.50241503206618
