23
Coordinates from ORCA-job NEB_product E -40.409916550010
  C           1.82795974754659      0.94771097473218      1.78540633341007
  C           1.93471454869180     -0.39985367001319      2.44509211003094
  C           1.93576403717826      0.81841067860130      0.25275992087500
  H           0.83251609637452      1.34098574113852      2.01988629009485
  C           0.80268262311986     -1.42197258608011      2.14617609471309
  C           2.88566700173308      1.90331600082642      2.36743869579684
  C           4.27016766577470      1.61848813771933      1.87375651263342
  C           5.04360662918113      2.50806001008509      1.28126134501050
  O           2.81956719287386     -0.75047671981147      3.17002157921156
  H           2.87751240457937      1.79391442683924      3.45565403303898
  H           2.60937268877377      2.93043818368119      2.12859426350733
  H           4.62529253875573      0.61360419990979      2.05303008804123
  H           6.04151622593452      2.26967924647789      0.95575683747396
  H           4.71696937921538      3.52064445502744      1.10411848471546
  C           1.69220324630820      2.14817769461008     -0.44973405062776
  H           1.20053895711250      0.09785544679900     -0.10357356783684
  H           2.92978398823115      0.44777803816367     -0.00138808657020
  H           0.73078175282683      2.56475253424079     -0.15854068851567
  H           1.68689341337487      1.99507838297232     -1.52589013797753
  H           2.47317375646494      2.86437581827507     -0.21464482750751
  Cl          0.52599002967695     -2.42331227147973      3.58522241064065
  Cl         -0.73499261434614     -0.70943012986862      1.65191112824472
  Cl          1.42061869061810     -2.46002459284620      0.83158523159690
