23
Coordinates from ORCA-job NEB_reactant E -40.392382528820
  C           1.56682149827360     -0.04035421593388      0.04142885657296
  C           1.70225971640051     -0.10202802478465      1.36491191531830
  C           1.85123266951611      1.15719583542029     -0.81576060829445
  H           1.15380491060715     -0.90070843526102     -0.45986289083440
  C           1.30117840535489     -1.30878252043419      2.18134751201079
  C           4.80114711845456      2.66936096693011      3.62358160735625
  C           4.20497712983597      1.55742141055555      3.23993092053404
  C           3.49160604243163      1.39437463658642      1.93176241876398
  O           2.19433127646070      0.86186833377255      2.19572290539567
  H           5.31342782939874      2.74126197909679      4.56700891353403
  H           4.81146475584616      3.55174892603457      3.00469779022616
  H           4.19071342163828      0.68014243440057      3.87076386655580
  H           4.05348267371290      0.70036380102936      1.29340263730363
  H           3.40138171659396      2.36194387507175      1.42290638058719
  C           0.87104386966055      2.29110656845697     -0.50447064813614
  H           1.75286496152346      0.87116649721862     -1.86339886184499
  H           2.87088901717437      1.51462794703632     -0.66303016331102
  H          -0.14914577579404      1.97064103095594     -0.70046071570768
  H           1.08866486219730      3.15737185274862     -1.12447105853807
  H           0.94220049985380      2.57946582517793      0.54094937459059
  Cl          0.29990912548661     -0.78406570911366      3.55565172408376
  Cl          0.41109131521386     -2.53539007797622      1.28248356529064
  Cl          2.78695296015894     -2.06913293698874      2.83320455854296
