20
Coordinates from ORCA-job NEB E -40.001487514840
  C           1.08238895985481     -0.02227809233156     -0.58961542894988
  C           0.46252316148773      0.36222954616329     -1.79432305013674
  C           1.14715437485981     -1.50573682714601     -0.28749243486041
  H           2.02528884513952      0.47822054126713     -0.38487146242083
  H           0.77567472755081      1.29315079576213     -2.27431551893971
  C          -0.19479347291950      0.68000487622143      0.62282498649565
  C          -1.40655331563781      0.09121875780508      0.21715439238915
  C          -1.86002411731828      0.36142905248369     -1.10457179956796
  O          -0.69533841107020     -0.12386739887296     -2.10664837084129
  C           0.21450735301194      0.52448367558343      2.06167670151884
  H          -0.05802728942840      1.72429836359252      0.34012121903898
  H          -1.72177274633379     -0.83048801714039      0.68381248663317
  H          -1.93766933906356      1.41006353740277     -1.38180997660630
  H          -2.71702876447180     -0.21261532605878     -1.43560353631307
  F           2.06290600246984     -2.06963587512867     -1.14089827267576
  H           0.19074241657911     -2.00266500151043     -0.47483707335974
  H           1.51308351367577     -1.72077284599651      0.72002937896042
  Br          2.10141614355259      0.92148903164601      2.36968917935251
  Br         -0.81821188783821      1.85239342811282      3.10569462246397
  Br         -0.16626615410036     -1.21092222185499      2.85398395781900
