22
Coordinates from ORCA-job P E -27.841172472120
  C          -1.04595778528339      0.19756706196211     -2.83491967069788
  C          -0.38088616785884     -1.53611698526294     -0.47593769351888
  C          -1.30940988994053     -1.94764576430635     -1.57878430116145
  C          -1.59525646048998     -1.18299655299337     -2.61915323136414
  C           0.12927542083188      0.46334427837690     -1.88429496127840
  C          -0.20084763718463     -0.02971844376200     -0.48859152984526
  H          -1.73339545096787     -2.93765082194546     -1.48847952404248
  H          -2.27654790742176     -1.53688434739806     -3.38056207507370
  C          -2.17807627361528      1.23248688130406     -2.70317380462296
  H          -0.77267531242080     -1.86910353117948      0.48877970108966
  H          -0.67129664197166      0.25788125732874     -3.86431990272356
  H           0.58678198705350     -2.03005560883801     -0.61967808648024
  H           0.36686149450553      1.52781090467698     -1.86664165352343
  H          -1.09086948679020      0.46818208462072     -0.09951259415855
  H           1.01192831864171     -0.06959813812993     -2.24682724762544
  Br          1.24021920121144      0.48151898338845      0.76249126943463
  C          -1.80672752103152      2.60364899387002     -3.25526848345260
  H          -2.47174382665737      1.32510286045383     -1.65582839706139
  H          -3.04632416637341      0.85781998321231     -3.25051239146321
  H          -0.98462309489772      3.04795482410216     -2.69971828400180
  H          -2.65872950169843      3.27605497010004     -3.18768138718737
  H          -1.51259929764070      2.52760711041929     -4.29997575124156
