22
Coordinates from ORCA-job R E -27.743016035440
  C          -1.46330650419233     -0.09417141376654     -3.12012967784552
  C          -0.18960082488564     -2.43089085014645     -1.65987740056474
  C          -1.38063780724573     -1.89574004907077     -1.41084579430261
  C          -1.96113084774295     -0.73572892694299     -2.06448991830689
  C          -0.91395355232948      1.21491578316092      0.42232129200684
  C           0.17450680143681      0.50580967068714      0.21247302486185
  H          -2.00104743636225     -2.33912537350149     -0.64056994107245
  H          -2.89400728425919     -0.38731698417158     -1.63607918039767
  C          -2.09312624319264      1.09941869208671     -3.75699112923971
  H           0.16263993465821     -3.29428902966882     -1.12127931126922
  H          -0.53999302614143     -0.42277679395887     -3.57551768467915
  H           0.47959676639404     -2.03096826567221     -2.40200286599440
  H          -1.59257995488472      0.95263809919874      1.21562426908801
  H           0.46192320095298     -0.35898831053808      0.78762938279682
  H          -1.17014050258078      2.07041228167096     -0.17821816254138
  Br          1.40665655073864      0.90810013792735     -1.15851098715032
  C          -1.11671096126067      2.27342894861058     -3.82956581422098
  H          -2.98810305642224      1.39162561173726     -3.20272327368205
  H          -2.39874253092933      0.83586953570343     -4.77480971121349
  H          -0.80940544496494      2.57733155779408     -2.83218537811156
  H          -1.58064062820843      3.12445829884674     -4.32279640821941
  H          -0.22474664857793      1.99358738001390     -4.38482532994197
