22
Coordinates from ORCA-job TS E -27.726714502460
  C          -0.39419815214119     -0.05905752975747     -0.64324191984704
  C           0.96001820578768     -2.21613760794999      0.69946613104426
  C          -0.38172718698779     -2.20447546068614      0.51212354552291
  C          -1.04363975484971     -1.16577239602836     -0.17584806374990
  C           0.28339472519159      0.68121368946619      1.34060851612488
  C           1.12999975435592     -0.20586637809151      1.91710796825198
  H          -0.99829740148399     -2.91068723423782      1.05269544374718
  H          -2.12576324390326     -1.15667171116349     -0.14530627402970
  C          -1.14319023583239      1.07699453441781     -1.28274315896237
  H           1.42066981924167     -2.95802218743985      1.33174244126887
  H           0.64955957282655     -0.12659184679613     -0.91063551641454
  H           1.62519240926257     -1.71621678435838      0.01948637739758
  H          -0.72932209728799      0.74207684162581      1.69898455776067
  H           0.86969546047656     -0.84692045878557      2.73930991645469
  H           0.66619257572682      1.53836268636763      0.81759002068846
  Br          3.01617471831189      0.01664183309420      1.72371129169914
  C          -0.22548393822044      2.12521855039089     -1.90086008052247
  H          -1.80267329502253      1.54887576705565     -0.54910748853341
  H          -1.78828044897920      0.66676697126323     -2.06651530054671
  H           0.40283657604597      2.59367889389999     -1.14666577266742
  H          -0.81128165004589      2.90493500162017     -2.38213503281981
  H           0.42012358752716      1.67165482609314     -2.64976760186725
