21
Coordinates from ORCA-job NEB E -53.918246677970
  C           0.56551572896133     -0.41302779920597     -0.50305254313643
  C          -0.90858990608708     -0.66179309939098     -0.72606703837104
  O           1.06060098441636     -1.26034929360324      0.50677346205501
  H           1.11419058764866     -0.56376284276030     -1.44168542303640
  C          -1.25898697597098     -1.63361504074179     -1.80752180286984
  C           0.64764775176685      1.05579078811390     -0.05151466308686
  C          -0.63616596743471      1.35877900170148      0.62661038047290
  C          -1.46888515614402      0.29663470816258      1.23145927307349
  O          -1.72834768888722     -0.74733252016203      0.35191295922816
  C           1.87537821928943      1.39774947984728      0.82512583506325
  H           0.75414756956843      1.67374498558236     -0.94981431796250
  H          -0.69626281816437      2.32321615179018      1.11059122339970
  H          -2.44104012970047      0.67170863518629      1.56396023639460
  H          -0.94028166665215     -0.09047099525563      2.11947786468411
  H           1.00452958560071     -2.17807210492772      0.21344984400221
  F          -2.56176121071515     -1.88251707891735     -1.89947288899437
  F          -0.84602103259880     -1.19246599762373     -3.00903835375750
  F          -0.64531279642534     -2.84268294935522     -1.65002021632268
  Cl          2.00095901568080      3.16827817628741      0.97649935036331
  Cl          1.74943637622607      0.72128850278556      2.45147710208507
  Cl          3.35924952962164      0.79889929248691      0.06084971671581
