21
Coordinates from ORCA-job NEB_reactant E -53.980674900300
  C           2.57135462511988      1.08136039954255      0.15529365886804
  C           1.49533110201123      1.64543193387282     -0.40097223296681
  O           3.03325462798170      1.35631080385578      1.40458031812177
  H           3.11198424372224      0.34240427123063     -0.41875022785755
  C           1.05286777536520      1.22282956900543     -1.78045852561944
  C           3.31695696037943      4.38065809620065      1.57431669722385
  C           2.27872462755891      4.21279312926870      0.77149568114261
  C           1.07100002667335      3.40934310842243      1.14503900418192
  O           0.63498300460566      2.59788083898225      0.06882638080448
  C           4.56076357810622      5.11823333602973      1.24053257442419
  H           3.33045239786572      3.94142059789214      2.56207581721126
  H           2.25889010808958      4.63165376537072     -0.22493443908464
  H           0.22269286862394      4.07644156375058      1.32962019898084
  H           1.26321432169686      2.80643548273332      2.03719850853227
  H           3.91090818362045      0.97748630933574      1.52264125160283
  F          -0.19686129941682      0.74464690349401     -1.79277669326162
  F           1.07704476706134      2.24948182596370     -2.64342084906332
  F           1.83082921117796      0.26670298251738     -2.30985168808878
  Cl          4.90664652088959      6.33392938415591      2.50419234420737
  Cl          5.91714046260394      3.94629630670526      1.21972332787711
  Cl          4.51802188626361      5.93545939167024     -0.32627110723637
