21
Coordinates from ORCA-job NEB_product E -53.971352704090
  C           2.36620250674277      2.27838364591019     -0.03427027117513
  C           1.01636349998647      2.63185388042940     -0.66841199464003
  O           2.12975396748528      1.05175598019170      0.59758207532368
  H           3.15104275709585      2.17635437416859     -0.79817121546096
  C           0.96366294905888      2.46771580348364     -2.21494769516341
  C           2.75945723305412      3.38722405558544      0.97956262145808
  C           3.85959987373040      2.89648760895480      1.87770693820230
  C           3.64370366327094      2.45648458911035      3.10495600244561
  O           0.02281707263752      2.85544859088359     -0.04606025435887
  C           3.17467574981653      4.65982543382961      0.25005497235209
  H           1.86655449143896      3.60949547286802      1.57607005496631
  H           4.84871862700950      2.88553716177065      1.44346980308169
  H           2.66180767057164      2.46409165626213      3.54952895664584
  H           4.44583102098294      2.08605409590541      3.71926961796706
  H           2.77797893408041      0.92612338562871      1.30600672424472
  F          -0.03698916995042      3.15891531407749     -2.75518995636207
  F           2.09452276346705      2.86453178063922     -2.81702401774183
  F           0.79046421651716      1.18015766716398     -2.53358701461076
  Cl          3.49128436819583      5.94673751261326      1.43065937430535
  Cl          4.63642567877452      4.41763390557667     -0.73164680763881
  Cl          1.86712212603361      5.19548808494715     -0.84645791384084
