18
Coordinates from ORCA-job NEB E -32.907527387410
  C           1.47342462769083      0.49856307002622     -0.00946114062832
  C           0.13981792777141      0.78256873465009      0.28029374242456
  Br         -0.64673199095541      0.31476578292232     -2.41645378754589
  H           2.13882253690543      1.31669112979668     -0.21429695692031
  O          -0.24646889423800      2.03230085393900      0.35078912792409
  C           1.87112283980419     -0.82962607712433     -0.03621472490149
  C           0.91300559405437     -1.83371717178970     -0.02449832199200
  C          -0.49351101189975     -1.49747614172748      0.38279842661035
  O          -0.72078876838740     -0.12614142275427      0.70936804143380
  I           0.89527914877506     -2.34732337447528     -2.65428955841081
  H           2.90819839640914     -1.08069515915955     -0.19221305620935
  H           1.20537074828663     -2.85682485773880      0.14794209185833
  H          -0.77160165664558     -2.06190820106018      1.28065189781617
  H          -1.21294954027685     -1.75006147136813     -0.40896426093973
  C          -1.61138355703252      2.29925654237506      0.64893557785529
  H          -1.72279888953749      3.37735657685316      0.56615713744625
  H          -1.85858188595810      1.96675104034846      1.65883125251463
  H          -2.26022562476596      1.79552014628673     -0.06937548833559
