14
Coordinates from ORCA-job NEB E -29.192183520080
  C          -0.97529532839804      0.71752983541087     -0.33273827497427
  C          -0.11035773405335      0.49885370796589     -1.45980917630668
  Br         -0.39144568674660      2.35784581188461      0.65941805251305
  H          -2.00949843992106      0.90526202211988     -0.61371063267424
  Br         -0.82577680045731      0.05463852649831     -3.14848412622507
  C          -0.85214597854861     -0.52308978480727      0.62793225003387
  C           0.53481974696897     -0.79738236632263      0.86192781492537
  C           1.58290209897035     -0.28812352727746     -0.04681795565607
  O           1.17534035173120      0.18465051579272     -1.30794605904834
  I          -2.01142695450004     -0.19233215645267      2.54818413272140
  H          -1.45824994503565     -1.30994925427368      0.18510173946863
  H           0.88305953554194     -1.02262828958488      1.85593488666577
  H           2.29623051063266     -1.08440898322641     -0.29277400432788
  H           2.16184462381554      0.49913394227273      0.46378135288446
