14
Coordinates from ORCA-job NEB_product E -29.256670587720
  C           1.99605125028649     -0.26024460355080      2.11284281537374
  C           0.72038892505018      0.33755398155212      2.62788366507992
  Br          1.58140252292135     -0.63088943579009      0.20972501350017
  H           2.81455135514135      0.46162632921307      2.09727987248135
  Br          0.59977818721902      2.24712863485728      2.24995677787483
  C           2.36464042402470     -1.55107126437413      2.81000186517697
  C           3.52992132858051     -2.23054001505888      2.18826744874826
  C           3.53734118160784     -3.51446555696626      1.87759680281889
  O          -0.17115884728427     -0.22511247397652      3.15980235979937
  I           2.84886431176356     -1.01909596646714      4.88431342587351
  H           1.49997979436904     -2.21301655063030      2.87677342660758
  H           4.39298398337480     -1.60455306647130      2.00368844191241
  H           2.68702578045588     -4.15030450845025      2.06198630458041
  H           4.39412980248954     -3.97661550388680      1.42078178017260
