14
Coordinates from ORCA-job NEB_reactant E -29.241200190160
  C           0.96356842257232     -0.09725984240661      0.96573334603305
  C           2.18588386174422     -0.60300229340751      1.09032173722391
  Br         -0.55160155156289     -1.21817928719854      1.03268247908971
  H           0.76382172595385      0.94677732691189      0.80927190182704
  Br          3.65990270607856      0.63470051146218      1.05747794520419
  C           2.17568415094363     -1.90435488907281      3.97276913658070
  C           3.34739181034339     -2.13862253483449      3.41367602380517
  C           3.53408608786430     -2.36336818961363      1.94024685005624
  O           2.45312214562604     -1.90554838627661      1.14769861258429
  I           1.93647402140371     -1.57030569937587      6.03008100753715
  H           1.24717511416375     -1.87364243256730      3.42753305298513
  H           4.25656308748644     -2.18097598209716      3.99469308222018
  H           3.59820842669044     -3.43503310733721      1.72551613304832
  H           4.46961999069225     -1.88968519418632      1.61339869180493
