23
Coordinates from ORCA-job NEB E -36.634533596660
  C          -0.83703293074240     -0.12325177923210      1.49465124971246
  C           0.15459202757364      0.03009965689335      0.64667824699579
  C          -0.73768425762379      0.40923768420631      2.91857488731102
  H          -1.83800123272161     -0.06486059090622      1.08958316674008
  F           0.44418344919721      1.67681118078479     -0.01239142430314
  C           0.22901527310866     -0.12191174293145     -2.53542567453313
  C           1.50597138104937     -0.11100445683998     -2.19926968855447
  C           2.03834415566149     -0.16653643502443     -0.80036633111931
  O           1.06941719051972     -0.64538946296567      0.14221195752816
  C          -0.26875139904487     -0.02804506423785     -3.94025659982421
  H          -0.55936547636997     -0.18145997097064     -1.79790077653769
  H           2.27408389082898     -0.02752000527892     -2.95429314927973
  H           2.37368157317323      0.83246287173364     -0.50179969389780
  H           2.86510227214280     -0.87918797340136     -0.73342924278892
  C          -1.58117384495414     -0.44667031073195      3.85442851391170
  H          -1.07904664466412      1.44764782036814      2.95570586981131
  H           0.30596830504104      0.38678814207266      3.23356332458154
  H          -2.62857547306383     -0.41231139640505      3.56466104581223
  H          -1.49217810499643     -0.08029741821541      4.87470894795434
  H          -1.25030688451699     -1.48201375450212      3.82759495629193
  F           0.75236057487228     -0.05745601731906     -4.85516552483605
  H          -0.80900271465818      0.91429997816978     -4.09407440376870
  H          -0.93160112981209     -0.86943095526647     -4.17798965720743
