23
Coordinates from ORCA-job NEB_reactant E -36.734382947640
  C           2.58800736975459      0.01070309989556     -0.18534696934173
  C           3.65119274205271      0.38037445124477     -0.88080600317139
  C           1.43700641350970      0.91907249870596      0.10731971637789
  H           2.57070031194191     -0.98337255194430      0.23137329890562
  F           4.65372089868873     -0.51397631581371     -1.11027867586335
  C           3.27277446729988      1.98406972571695     -4.79193174127880
  C           3.59387044842712      1.24155105985082     -3.74681899119079
  C           4.51683351874596      1.68327916300171     -2.65376145403766
  O           3.89215891794934      1.60413478328785     -1.37241927798655
  C           2.35742718606288      1.55145210989753     -5.89145134307463
  H           3.67739330703056      2.97800996955593     -4.92424340770018
  H           3.17409430960492      0.25116789059325     -3.63003284707691
  H           4.79148818182737      2.73367040369689     -2.76637723482881
  H           5.42715349986673      1.06870811641329     -2.66262818338117
  C           1.37921782936831      1.27671630600302      1.59238378439011
  H           0.50803653292447      0.41776861323435     -0.17633038867311
  H           1.53776380036162      1.82834098260129     -0.48602201373524
  H           1.28188554233125      0.37811446414286      2.19732114985236
  H           0.52797891073057      1.92278217244630      1.79270592266168
  H           2.28711859343231      1.79581710390763      1.88912593982886
  F           1.86177589795511      0.29010153155430     -5.68835847561041
  H           2.88399173160053      1.53419824836570     -6.85443324400790
  H           1.49330958853341      2.22401617364207     -5.96578956105792
