20
Coordinates from ORCA-job NEB E -35.002082688910
  C          -0.64235598769199      1.29655141500440      0.09097925829714
  C          -0.77746332166418      0.61391604085676      1.33389696626393
  C          -1.83409425042723      1.58709509097478     -0.61863496487388
  H           0.11188549854201      2.07475943154097      0.02079076299006
  C           0.27549585653139      0.83638474365651      2.28375543287629
  C           0.07192679463134     -0.14181396923930     -1.11301309914818
  C          -0.21116134412711     -1.34364762709455     -0.41816335580853
  C          -1.48833190696999     -1.57080330194727      0.04996716909678
  O          -1.57592792490518     -0.35214576308415      1.47650656019542
  O           1.31747337984987      0.25883978740420     -1.43768649506496
  H          -0.59895964151758      0.12581628492050     -1.92638464373395
  H           0.60641123437439     -1.83756259718160      0.09021252661939
  H          -1.69585903188664     -2.45724991620900      0.62657906001306
  H          -2.33287124053454     -1.15093260473991     -0.47719806475864
  N          -2.80238597439317      1.83941008206026     -1.17562691584970
  N           1.10101663857037      1.04167414220131      3.05292431879620
  C           2.39942419797857     -0.13921772091857     -0.61396219713696
  H           2.63933615111962     -1.19563599266302     -0.76027052635063
  H           2.18969785085846      0.04716587513587      0.44363046244994
  H           3.24674302166158      0.46739659932183     -0.92830225487277
