20
Coordinates from ORCA-job NEB_product E -35.027600584690
  C           2.47272811500525     -0.82764586109566     -0.73471195590805
  C           1.29588868108005     -0.93356540024847      0.23337883220847
  C           2.40006894219706      0.48602449508116     -1.33567765663048
  H           3.41505686277763     -0.89889055314769     -0.17727786536717
  C           1.59945226697706     -0.27766809746058      1.49372689981622
  C           2.38435630081867     -1.93913153413482     -1.82913371133315
  C           2.54222280090942     -3.27720066269723     -1.15569706701374
  C           1.66038708275411     -4.25147815327286     -1.26813498374875
  O           0.25172526001799     -1.46894945218389     -0.01050137901213
  O           3.27101792473040     -1.70728330958753     -2.89626855690176
  H           1.39308505662932     -1.87603142550410     -2.29325855084500
  H           3.43370678619002     -3.40281203132798     -0.55397593288048
  H           1.79567020836235     -5.19732163274758     -0.77188124693627
  H           0.76527016640442     -4.13902853074449     -1.85601624755040
  N           2.33960809758199      1.51922040042778     -1.81674384093654
  N           1.88788334927709      0.25392875371728      2.46496729198351
  C           4.64529993408064     -1.91870693402094     -2.66034775512799
  H           4.86363217285686     -2.96998545583202     -2.44839948072193
  H           5.03044606779297     -1.29324229307260     -1.84793870047002
  H           5.14049392355670     -1.63183232214777     -3.58570809262434
