23
Coordinates from ORCA-job NEB_product E -41.045458934700
  C           2.82598978673947     -0.38681617058798      0.82513557936424
  C           1.47179348056598      0.25655399972795      0.76163024232875
  N           3.03716257643750     -1.23101069809137     -0.32699375114870
  H           3.61765266338065      0.36922856466763      0.85961702314825
  C           1.33085334626348      1.68408664509920      1.33555458263429
  C           2.87616362834430     -1.22529786409320      2.17126963095478
  C           2.74543800124512     -0.33394938608308      3.36815872720684
  C           1.78185971389833     -0.45897205536853      4.26150541837137
  O           0.49646104134873     -0.28469036262566      0.31106090073556
  O           4.02550844089113     -2.04253410445559      2.15421861743439
  H           2.04469396719168     -1.94043245352457      2.13916105018767
  H           3.48558036075743      0.44888493168604      3.45902848436300
  H           1.69896565643492      0.20992782108247      5.10015447783878
  H           1.02835422673637     -1.22489782576322      4.18165866859222
  H           2.16688969513463     -1.68985683794807     -0.58080646769605
  H           3.71509360427117     -1.95168783934335     -0.09336127011898
  F           0.52063765485588      1.67672230158026      2.41812666517681
  F           2.50721980158730      2.21551793291490      1.73759846957353
  H           0.88740084221405      2.35824088362822      0.58454914577678
  C           5.25363080093182     -1.43638304595538      2.49495415934254
  H           6.01403019533684     -2.18930046391367      2.29436016181799
  H           5.28532659799837     -1.16769050704537      3.55492864223170
  H           5.45869391743486     -0.55014346558761      1.88719084188426
