23
Coordinates from ORCA-job NEB_reactant E -41.056463107080
  C           1.36511331222138      0.35216798540984     -0.67939156259485
  C           1.52738121584614      0.75573005580744      0.59106793095365
  N           2.11785363833351     -0.63440850900997     -1.26829694135767
  H           0.57663845395901      0.77078557169941     -1.28561674128984
  C           0.57902133785189      1.73849392055077      1.21024542941625
  C           3.62889082460498     -2.07077677976710      3.46184966336850
  C           3.56391131689413     -0.77269139325078      3.19320838768292
  C           2.32634798636531     -0.12722778419577      2.66213114784391
  O           2.60221412236837      0.29653170547315      1.32311314221469
  O           4.67468663101876     -2.78183509773931      3.93793150947134
  H           2.77341382124002     -2.72111059414377      3.33331555884457
  H           4.41191251398727     -0.11640307321738      3.30401265613750
  H           2.06215548226813      0.74222324868223      3.27837671978322
  H           1.48750507556104     -0.83381832091542      2.66299965313700
  H           2.92564279890483     -0.90212513888628     -0.72506971536036
  H           2.28636088641113     -0.54744827083813     -2.25704420260891
  F          -0.27477831158591      1.15304191983559      2.10718671265277
  F           1.22497633777476      2.70360507443604      1.91372427636580
  H          -0.04726685518827      2.23339968824325      0.45356179764187
  C           5.87995471307786     -2.09065188477054      4.17076969794316
  H           6.58596368980477     -2.83219592846664      4.54027377416705
  H           5.74637717876608     -1.30549530505228      4.92120781691349
  H           6.26512382951478     -1.64479108988437      3.24864328867392
