19
Coordinates from ORCA-job NEB E -40.808765100320
  C           0.32675488271741      1.15124786364280      0.50341987293437
  C          -0.12349401616695     -0.10044023152521      1.03192801431707
  N          -0.19894361352996      2.03835295888357      1.35360863877151
  H           0.91801009429804      1.36404932872586     -0.36343259027929
  C           0.30623601946068     -0.62135480686823      2.39468018125646
  C           0.54424506205351     -0.15782810593063     -2.88203059918668
  C           0.19179834907964     -1.01339251002711     -1.94037017126299
  C          -0.99219403839617     -0.81173173775769     -1.04767500915007
  O          -0.65842292519821     -1.05309380802314      0.32062931579221
  F           1.59288583958020     -0.38371033890616     -3.67470387874486
  H           0.04216111380422      0.76900827036979     -3.12465985833488
  H           0.76443045684974     -1.91494061182519     -1.77978842281789
  H          -1.76576810945135     -1.55164836581527     -1.27568769185176
  H          -1.39825760082325      0.19995093620414     -1.15577606464750
  O           0.03114763567900      3.21713667262679      1.48321635449590
  O          -1.07926184364217      1.39596761127933      2.05964077737137
  F           1.28962420942074     -1.55682453550870      2.17315813763327
  H          -0.52190598891390     -1.12852319229173      2.89542973136638
  H           0.73095447317880      0.15777460274675      3.02841326233737
