19
Coordinates from ORCA-job NEB_product E -40.847397033610
  C           2.17152391578453     -0.58672851045368     -1.52897264263207
  C           1.33665339415624     -1.26870150347187     -0.42870765311749
  N           2.23708981032323      0.86401761123493     -1.12802778213103
  H           3.20165544931697     -0.95463245008543     -1.52157712039237
  C           2.19011722250397     -1.69281235448249      0.74715370540726
  C           1.54052147557346     -0.74752095324704     -2.91819915874657
  C           1.33408260024221     -2.19443820391444     -3.25780643234911
  C           0.15078987015136     -2.77568876743311     -3.27992715306481
  O           0.15292401595914     -1.39602089529363     -0.50672663966013
  F           2.42085668047911     -0.18703846554990     -3.82384474213083
  H           0.60914690481175     -0.17288106640200     -2.97984825368995
  H           2.24123127524300     -2.73037790174096     -3.50010144384675
  H           0.04203520547075     -3.81855401932053     -3.52046889364442
  H          -0.75039358832951     -2.23681400842409     -3.04216686072578
  O           3.07952809265423      1.12348098206541     -0.30674746608859
  O           1.44191297462919      1.61711101482238     -1.60616365382154
  F           1.42640576595169     -2.18106360872310      1.76095939538932
  H           2.75602335375758     -0.83215310533852      1.13027722702993
  H           2.88429558132111     -2.48678379424190      0.44429556821493
