20
Coordinates from ORCA-job NEB E -40.767651846790
  C           0.43093468079679      0.22757663943991     -0.70152971618199
  C          -0.94700460193094      0.20345566245701     -1.03835467811748
  Br          1.36795024200426     -1.57732281996623     -1.36743534576053
  H           1.01036496483808      0.95473197603372     -1.26083167553126
  C          -1.51864969835936      0.97334092260871     -2.17567050514962
  C           0.62054031534618      0.35123983398962      0.85194240196271
  C          -0.20025427187081     -0.69487274625955      1.49739774740523
  C          -1.33930527286489     -1.27040217741777      0.74665581946150
  O          -1.80810237651912     -0.57176342056755     -0.36920578096886
  C           2.07332259002200      0.36492065672006      1.36402713252515
  H           0.26517911695700      1.37028646689144      1.07541939980071
  H           0.29964381903928     -1.39412884133030      2.14695504834053
  H          -2.21824200219265     -1.41079519263663      1.38693991189968
  H          -1.03743190048556     -2.27272780307687      0.39958237365003
  H          -1.17159979033368      2.00546186529133     -2.15689683763569
  H          -2.60288852882494      0.95033716520835     -2.11682911006564
  H          -1.21180865095120      0.53595606704494     -3.12783092354988
  Cl          2.05529182838944      1.09590288184512      2.99710382384505
  Cl          2.82989403758856     -1.22673615657662      1.51656532851250
  Cl          3.10216549935157      1.38553902030130      0.33199558555789
