20
Coordinates from ORCA-job NEB_reactant E -40.817619930880
  C           2.59142909179546      0.42575179253586      0.85751113247223
  C           1.45723319357093      0.86151581698804      1.40119434139416
  Br          3.85231067799621     -0.85131389624412      1.49329035988471
  H           2.88814003542176      0.79793900558998     -0.10744529511295
  C           0.61391477145629      1.85069617549490      0.64007929296475
  C           3.72287116608585      0.22600870299508      4.73500460431698
  C           2.62484890908670      0.73492372744611      4.20015764225559
  C           1.51178486275311     -0.09044392689514      3.62995927839290
  O           0.84375307958490      0.57379105895158      2.57621129974593
  C           4.84026250887259      1.00914845880242      5.31860010839321
  H           3.88268761671005     -0.84262954351676      4.77391002253982
  H           2.46853860623571      1.80360935793560      4.15021414266559
  H           0.73292131238628     -0.20985783260187      4.39293401889316
  H           1.85667149884929     -1.08576830209490      3.33521243886499
  H           0.61124169135094      2.80499104677451      1.16392749925236
  H          -0.41074112801689      1.48752551117108      0.60521842933505
  H           0.98166979820843      1.99670763354259     -0.36937585063496
  Cl          5.03551760696065      0.56337052497421      7.04188078661985
  Cl          6.35711497050846      0.59771099231373      4.46398241240255
  Cl          4.61172973018329      2.75892369583712      5.22733333535409
