20
Coordinates from ORCA-job NEB_product E -40.832201507960
  C           2.49267726288412      1.00606665619318      2.24228100262901
  C           1.14142068830648      1.72832777496003      2.25742530765216
  Br          2.28046522312145     -0.30590278091335      0.79876334561661
  H           3.30887368765239      1.65525523003929      1.92325759554557
  C           1.06303667840300      2.89226635478123      1.31759399226868
  C           2.80264530581585      0.30917191566164      3.56861798782193
  C           3.70469563113366     -0.88410548437155      3.40798403520003
  C           3.40007553006098     -2.08521664761239      3.85881590918701
  O           0.23506200347609      1.33384001407471      2.93854731872507
  C           3.44719669490205      1.31209166043671      4.53002580118088
  H           1.84934659999358     -0.00739497077367      4.01250168007986
  H           4.63268678213780     -0.69952184359933      2.88584342705067
  H           2.47634778092926     -2.28317709944030      4.37704546518642
  H           4.06140119771779     -2.92187170983214      3.71903169564857
  H           1.71943368492006      3.68351672654160      1.67703925682724
  H           0.04369053845973      3.26496507321115      1.26941222778382
  H           1.39659572218944      2.59840602673619      0.32412592692274
  Cl          3.65867190211055      0.56575689117421      6.12730538744135
  Cl          5.04541705886573      1.83757049814640      3.94313318666308
  Cl          2.43826002691998      2.77105571458639      4.72084945056930
