23
Coordinates from ORCA-job NEB E -63.684726135240
  C           0.39996856043188      0.05078042743445      0.62626147291253
  C           0.54828066946844      1.09455112893161      1.53758862331952
  C           0.69205150147881      0.34552086403491     -2.88460465833272
  H           1.03479439798723     -0.04726379415909     -0.23757849033618
  C           1.61351779447756      2.14925571466642      1.18075468724633
  C          -0.66540019890647     -0.96728085316404      0.84485709469955
  C          -1.70363529214918     -0.91446687896695     -0.25662802114375
  C          -2.28543011331592      0.20704600628044     -0.63856929914671
  O          -0.09760752737996      1.27825535201852      2.56480486131972
  C          -0.05090796701634     -2.36268692068913      0.90200517418580
  H          -1.13287375347387     -0.77529239452677      1.81972041425545
  H          -1.95076106410216     -1.85985983780931     -0.71830214865945
  H          -2.05792591637111      1.15243182959412     -0.17521735610343
  H          -3.03604350453999      0.21503435549658     -1.40892180422797
  Cl          2.27714870142134      0.91041253501946     -2.81284942426984
  Cl          0.39704114473020     -1.30696260559441     -3.00347772519344
  Cl         -0.57603470787937      1.43508390846389     -3.04790220499717
  Br          0.93688791496870      3.16232794287588     -0.35281106060521
  Br          1.87549026024717      3.35300320147574      2.66054421097455
  Br          3.31855343943238      1.36359498925628      0.66530605998398
  F           0.86568549421943     -2.47784916854166      1.86676587750195
  F          -0.96776251175107     -3.31511927132394      1.11875440703114
  F           0.56496267802230     -2.69051653077296     -0.25050069041462
