23
Coordinates from ORCA-job NEB_product E -63.781292229680
  C           1.72050201649312     -2.01040251242415      0.77210342172101
  C           2.96441828870662     -1.79798901771046      1.63126610916776
  C           2.14181965663317     -2.27920537698839     -0.68142871396211
  H           1.13758868012611     -1.08058611651532      0.74529919658649
  C           2.91078802318963     -0.64531840650277      2.63803076077167
  C           0.77523181174006     -3.05458333626562      1.44238975428614
  C          -0.62914817686287     -2.99485100383106      0.88024453545760
  C          -1.50484624058122     -2.07347898348977      1.23340535429023
  O           3.97579012846657     -2.42228563702625      1.54776540475178
  C           1.22897151173224     -4.51570711462803      1.45472378192667
  H           0.72087905178571     -2.78672002731539      2.50500731488850
  H          -0.89068934313591     -3.77002434786584      0.17675395860480
  H          -1.27569383271048     -1.29619852874646      1.94379947349753
  H          -2.49684184461493     -2.06743117071651      0.81959371092665
  Cl          3.21274559088429     -3.66867521867505     -0.90424339706936
  Cl          0.71060699175508     -2.46988636556208     -1.71652103657523
  Cl          3.01859976809901     -0.82261440739262     -1.25922527819761
  Br          3.35939501477860      0.95264538097341      1.59557904771114
  Br          1.20912778765104     -0.33012528952863      3.49212217864225
  Br          4.25817186840119     -0.92966438663460      3.99544770106923
  F           2.48614365095442     -4.68311613171737      1.87299712425856
  F           0.45601071849852     -5.19314895304497      2.32242028330679
  F           1.10222887801001     -5.14293304839205      0.28486931393951
