14
Coordinates from ORCA-job NEB_reactant E -30.633491149360
  C           1.11519620104780      0.48714744724648     -0.09501313935908
  C           2.14604341813712      1.23964574863947      0.28164555139421
  Br         -0.30752040631052      0.17680802849964      1.09540349671607
  H           1.03399296321363      0.01176892771675     -1.05340798638311
  Cl          3.42662662778966      1.53010011023914     -0.85632142265548
  C           1.60612995041702      4.34585628917278      0.58566926711281
  C           2.78421983757918      4.09884759983110      1.12577375321380
  C           3.15493900594651      2.80062893974324      1.77519249052358
  O           2.24716557473030      1.74673087412610      1.51393138713987
  F           1.33482359151911      5.52742037690879      0.01734619523330
  H           0.76346267185586      3.67132702472752      0.53936574326219
  H           3.55170063067356      4.85779927469930      1.12312556671941
  H           3.13691785610303      2.90716161613438      2.86494399291087
  H           4.16960207729775      2.51265774231529      1.47224510417157
