14
Coordinates from ORCA-job NEB_product E -30.646039065630
  C           1.80153442382167      2.04279830731021     -0.15859022094655
  C           0.47120725463576      2.14793520187922     -0.86214909598320
  Br          1.60259470178021      0.55047643478765      1.07096238675049
  H           2.60754974297743      1.78411328193417     -0.84709424056847
  Cl          0.44253814130156      1.23479709951988     -2.36181549158031
  C           2.12831234050925      3.32724668973648      0.62015701637403
  C           3.39804224352311      3.19932008838306      1.40510465113135
  C           3.43184847767707      3.02191228148063      2.71158587992570
  O          -0.48305813347094      2.72956323274878     -0.47371099510152
  F           2.26917957995759      4.32167855357023     -0.32742862089828
  H           1.27652784030569      3.60977802207647      1.25146075560538
  H           4.29848455186964      3.25718780858485      0.81015359116523
  H           2.53336348998933      2.96594353431183      3.30339997079041
  H           4.36267534512263      2.91304946367653      3.23906441333575
