14
Coordinates from ORCA-job NEB_reactant E -31.093851255360
  C           2.00729229426759      0.05705360274906     -0.35512200973019
  C           1.38422574573437      0.71350510818816     -1.33039168579551
  F           2.77558852806701      0.65838309042549      0.58256288141894
  H           1.96109271086677     -1.01074200923725     -0.23496628660778
  Cl          0.44556364450474     -0.22434743423504     -2.43213510553581
  C           4.11254996931683      3.73198326545581     -2.24200404708298
  C           3.56010804183232      2.87123614778295     -1.40335626341374
  C           2.12376820667500      2.97080627728082     -0.98253880478037
  O           1.30173358377240      2.01224170354107     -1.65185532987597
  Cl          5.74716167127396      3.62456153465498     -2.74294985925051
  H           3.58242824052799      4.57313147094712     -2.66338674305636
  H           4.12674684566969      2.04099827375960     -1.00963565037433
  H           1.69920662304583      3.93015854720058     -1.28494127231569
  H           2.03433389444551      2.85643042148665      0.10212017640032
