14
Coordinates from ORCA-job NEB_product E -31.109880061800
  C           2.98277003903929      0.65757981955667     -1.52810146884552
  C           1.49665340181315      0.55210207676035     -1.25265474009519
  F           3.65494018274298      0.18086854466012     -0.43778363294776
  H           3.26034767085825      0.02715694610006     -2.38267314529434
  Cl          0.56956736375409      0.87552387508672     -2.71649598323540
  C           3.36009344423918      2.12614398394158     -1.79166626677807
  C           3.13334018048022      2.98140876404459     -0.59013823664833
  C           2.41607588554033      4.08913736783783     -0.61679788312160
  O           0.96227694343050      0.30985797510530     -0.23025221979452
  Cl          5.10407361510501      2.18496988259196     -2.24121478546892
  H           2.80576843171980      2.48849774082836     -2.65996636766239
  H           3.60941131679131      2.63474185634372      0.31565809486157
  H           1.94451688700932      4.44136355296313     -1.51967788070010
  H           2.27286463747656      4.68664761417962      0.26586451573055
