19
Coordinates from ORCA-job NEB_product E -40.844184332530
  C           1.66844372168463     -0.23219054575340      2.37429204988996
  C           1.36296485938802      0.77595449584177      1.27023009362462
  N           1.57141697198861     -1.63050543585219      1.85145847550246
  H           2.71159167961896     -0.08994754277824      2.68763505886024
  H           1.21724550547272      1.79573158931877      1.67121700445779
  C           0.72673410077557     -0.01035105163845      3.57468851270969
  C          -0.72491019575667     -0.03093970633289      3.17070534316609
  C          -1.55259707454042      0.96565131976724      3.41727164523549
  O           1.30536855141941      0.52594084661585      0.10980746124656
  C           0.99465524274185     -1.05623953886899      4.67219543620370
  H           0.96787950464559      0.96284169937631      4.01875439001638
  H          -1.05910855566335     -0.93076174554026      2.67493933449276
  H          -1.23689547584819      1.86424072802538      3.92296334251683
  H          -2.58750927388555      0.91691377138036      3.12994617840901
  O           2.53756959136479     -2.32535142262103      2.04001451243438
  O           0.55630756868633     -1.94580717094635      1.29817351867134
  F           0.40041471085110     -0.66617780942931      5.82157493373140
  F           0.47105274371795     -2.25674656450159      4.35272950975774
  H           2.06757582333864     -1.20285591606299      4.88160319907357
