19
Coordinates from ORCA-job NEB_reactant E -40.848997610870
  C           2.07545955712723      0.03734395787101      0.18337476884728
  C           1.27660110352830      0.55064513955451      1.13497843718494
  N           2.37272841475416     -1.34145167639316      0.05400639148444
  H           2.54540691969262      0.66453668491970     -0.55476706465688
  H           1.11106531650003      1.62687292766047      1.14368966141801
  C          -0.34922054600743     -0.03811868039200      5.41222043471859
  C          -0.39800526526514     -0.42095947037703      4.14861951731209
  C          -0.17062483321670      0.49412011128813      2.98776476913138
  O           0.68482362321566     -0.16778824058012      2.06877275920364
  C          -0.60726372606082     -0.95750420417499      6.56824174115848
  H          -0.14630761699033      0.98113671345081      5.70844577565138
  H          -0.59937961207571     -1.44828154569661      3.88091966545864
  H           0.26732411029524      1.44683643472068      3.31082309702537
  H          -1.13413339104361      0.69752943289189      2.49583008969035
  O           3.10860488698488     -1.64830476238104     -0.86605384987043
  O           1.89361648773714     -2.12734030066892      0.84435941147191
  F          -1.47124410184718     -0.37980536599411      7.44424794023236
  F          -1.17426636408800     -2.12105165518220      6.18347965857747
  H           0.31121503675969     -1.20001550051701      7.13154679596099
