20
Coordinates from ORCA-job NEB E -34.575102336420
  C           0.28512437242421      0.32828462720610     -1.50990576143533
  C          -0.28058683459483      0.96180587765839     -0.40245188708138
  O          -0.50508939098550     -0.32412830185370     -2.39044123724380
  H           1.19881407406280      0.69742482863502     -1.95222157553537
  O           0.52457894843179      1.83141047431182      0.27722196020704
  C           0.94578451552957     -1.28064925932532     -0.24594500496681
  C          -0.28837287375721     -1.75278780827362      0.17760739255091
  C          -1.04985407872183     -0.94118012141904      1.04594800243872
  O          -1.35710110550358      0.48535082460793      0.11356292763631
  C           1.71084414554907     -2.01563831588496     -1.18105105091922
  H           1.53700505279359     -0.64592757692586      0.40569885681089
  H          -0.78946362231282     -2.49794261782681     -0.42424027492929
  H          -0.53419420136389     -0.47679127079642      1.87771255181252
  H          -2.05848217788380     -1.25023858390968      1.28065299490355
  H          -1.36500579876003     -0.48986201585565     -1.97090945964596
  C           0.01233167521499      2.38285093977693      1.47805408610594
  H           0.35349860496866      3.41602579381404      1.52225998778384
  H           0.40122094350784      1.83715235664349      2.34249835524129
  H          -1.07882747636012      2.34795372399644      1.48687028394928
  N           2.33777522776109     -2.61311357457910     -1.93092114768310
