20
Coordinates from ORCA-job NEB_reactant E -34.593172135900
  C           1.56433170519977     -0.67118045011618      0.22344702329548
  C           1.55474295829766     -0.46317102951501      1.54175204143719
  O           1.16655341193103     -1.84206464268748     -0.40870601156522
  H           1.88732273752361      0.14579892911739     -0.40122137209428
  O           1.95041307320078      0.77226267295512      1.97021672941207
  C           2.38704807359297     -4.36659345909293      1.05435522579135
  C           2.30659972192980     -3.33234226039278      1.88862489169582
  C           1.02160918218672     -2.66850205363406      2.26785892088083
  O           1.18692275372620     -1.29653490221306      2.55862620271610
  C           3.61091306331357     -4.97869629561026      0.72684888090766
  H           1.50890140902916     -4.78351017632450      0.57928529685587
  H           3.19824533997145     -2.91876115450379      2.34197795415880
  H           0.65471788912054     -3.09590424653193      3.20974468980584
  H           0.26463318516972     -2.81539327205682      1.49093492640877
  H           1.55933078147750     -1.85815724289119     -1.28630118888923
  C           1.81943997261703      1.04328761567856      3.35165575635086
  H           2.15294743025552      2.07172671163946      3.47367890859547
  H           2.44575847315650      0.37730072360920      3.95083431210826
  H           0.78151353680499      0.94691642103979      3.67950433306152
  N           4.60335530149547     -5.48248188846953      0.44958247906683
