20
Coordinates from ORCA-job NEB_product E -34.628066378860
  C           2.85147465345636     -1.36255950679855      0.60026113126429
  C           1.96714896248539     -0.47787697421738      1.47350280074013
  O           2.50106018799484     -1.19638419738566     -0.73511745923495
  H           3.90477616595609     -1.08062389672604      0.73269616395354
  O           2.34167555577667     -0.46497926308221      2.74379000161177
  C           2.66509008153206     -2.83235784726949      1.09451765812747
  C           1.22423355322632     -3.25037391143591      0.97444564768612
  C           0.46976808953327     -3.56828413875660      2.00822061509683
  O           1.01929266801471      0.11163577782736      1.02039119780254
  C           3.49604727718197     -3.71453787534281      0.30632122029744
  H           2.99583709349737     -2.88322732267620      2.13831396098850
  H           0.83547410568048     -3.26143048074347     -0.03419590081233
  H           0.85156878084380     -3.56585903175269      3.01697180124762
  H          -0.56205246450703     -3.84932474573344      1.88846434692983
  H           1.65028072204775     -0.72617462871927     -0.76082445111681
  C           1.53647033825935      0.30981081681825      3.62919920703464
  H           1.99768640970665      0.22509144858453      4.60925489172071
  H           0.51697455213151     -0.07938932424026      3.64638770181847
  H           1.51252004224231      1.35074626755783      3.30299897667994
  N           4.14067322494014     -4.42720116590800     -0.31079951183573
