21
Coordinates from ORCA-job NEB E -40.945203233710
  C          -0.45456508173544      1.26202540825965     -0.52921717661394
  C          -1.05819311930512      1.00234697044932      0.71517526961517
  C          -1.30647844691048      1.44636767234403     -1.64550587814617
  H           0.43174010234627      1.89005782306530     -0.52838932375553
  N          -0.21215671742055      1.35269820761069      1.90993005146035
  C           0.28470350445404     -0.58254644934837     -1.04243778284672
  C          -0.27581664952169     -1.43256734709055     -0.06103654688610
  C          -1.63971644188929     -1.50112145174739      0.09048337617371
  O          -1.98620966195537      0.21129833361984      0.91949736865529
  O           1.59447574175938     -0.37347406186269     -1.21494155764754
  H          -0.20869287004482     -0.55961372958326     -2.01113471882964
  H           0.34623235379697     -1.73470424952198      0.77124553406763
  H          -2.06557527619731     -2.10401572092785      0.87453707147811
  H          -2.28749349902476     -1.28235646626623     -0.74453890695957
  N          -2.00140809929655      1.60639307488180     -2.54113531425962
  O           0.73786042688523      2.08745007761078      1.72422787171775
  O          -0.54236699152518      0.87320392956661      2.96450320367932
  C           2.47659692259932     -0.51931098730722     -0.11305595175086
  H           2.55489070115275     -1.56376857425266      0.19751218073799
  H           2.16643998551698      0.09797262168281      0.73329374507225
  H           3.44573311631561     -0.17633508118263     -0.46901251496185
