23
Coordinates from ORCA-job NEB E -32.454613623790
  C          -2.29338357804587     -0.29552041304347      2.95586590437168
  C          -2.22066472990368      1.55499066876805      0.63018291713389
  N          -2.19772257418168     -0.84173003086613      1.79108434857757
  H          -1.57286924256712     -0.76356521913348      3.67616135960032
  O          -1.94802150814970      2.38683172212594      1.66913442946270
  C           0.78559948209458     -0.41612114054182     -0.54178248894759
  C           0.99362787997845      0.87469513783002     -0.72568688245869
  C           0.02400644124344      1.89985569871464     -0.23227399284817
  O          -1.31386943408870      1.35005295244397     -0.23182010642115
  C           1.63466821169593     -1.57775354944818     -0.96661936012110
  H          -0.11804278612723     -0.69527723868973     -0.03364938961415
  H           1.84294934997628      1.26391865540996     -1.25272307607036
  H           0.01130467307760      2.76715519103227     -0.89386196558211
  H           0.25847413326307      2.21936503384145      0.79214494562858
  H          -1.57874092863974     -1.61812196257020      1.53791673915747
  H          -2.78045639081330     -0.47418415916328      1.03947832901962
  H          -2.68351923600821      2.25384629524036      2.29260315023409
  C           2.29456282702968     -1.43814582110450     -2.32923578336085
  H           1.01865926275595     -2.47779573654023     -0.94316769232220
  H           2.43614242150810     -1.72195035417512     -0.23681725444657
  H           1.56084860147329     -1.20016080900999     -3.09135916289608
  H           2.78636947510597     -2.38237545901676     -2.56820822122566
  H           3.06007764932290     -0.66800946210377     -2.33736674687123
