23
Coordinates from ORCA-job NEB_product E -32.633471268330
  C           3.02335702565795     -0.79144462583147     -0.72860875244423
  C           1.52821486489014     -1.07858505692364     -0.53700962448414
  N           3.29593506042591      0.63105842116751     -0.66789747242755
  H           3.58253385559165     -1.27975323889030      0.08222946216963
  O           1.20258537610515     -2.35885399721732     -0.28362214119432
  C           3.46681468181297     -1.42107357665905     -2.07896111402562
  C           2.87223171708602     -0.66561295677524     -3.23019650960290
  C           1.93014744812579     -1.15052759666031     -4.01629648767207
  O           0.69084112086150     -0.22553612718665     -0.60305986741656
  C           4.99717644894912     -1.54365146491610     -2.18520094463392
  H           3.06650006318246     -2.44421118421493     -2.10574999869819
  H           3.25849704191653      0.32980489413341     -3.38658650303550
  H           1.52309638087395     -2.13988566084057     -3.87985042396542
  H           1.51923250833320     -0.57906818306579     -4.83056850481601
  H           3.10903881918388      0.97687388197728      0.26783005814473
  H           2.65544242734527      1.11535146347529     -1.29043097764861
  H           1.97568036494420     -2.93804829128011     -0.25125037621867
  C           5.74301487714545     -0.21947714732360     -2.29239907128941
  H           5.22130357387682     -2.15659304337592     -3.06208784833270
  H           5.35656851261048     -2.08517662002590     -1.30584336237459
  H           5.56329518917195      0.24968368903904     -3.25555403338697
  H           6.81246764429711     -0.39343819765101     -2.19731346258054
  H           5.41972499761247      0.45766461904539     -1.50777204406644
