23
Coordinates from ORCA-job NEB_reactant E -32.612403936370
  C           1.08789416420135     -0.59208991488530      0.03569701976453
  C           1.97121215425087      0.10175789811398     -0.68492479826936
  N          -0.11910089930138     -1.09959855912294     -0.48856029778329
  H           1.21863055628846     -0.71543262735934      1.09961483291630
  O           3.08936562625744      0.69942589165364     -0.15509145338280
  C           3.92953564859597     -1.50157756648475     -2.61158594664591
  C           4.00021557250180     -0.22331043280227     -2.93902200050018
  C           2.88605502396564      0.76947020926886     -2.76413487730364
  O           1.77990420274181      0.29218478160998     -2.02391520593352
  C           5.01161721222838     -2.52666076634358     -2.75828782470841
  H           3.01084378111768     -1.88819194023156     -2.18757295572065
  H           4.89352093347669      0.20562411180603     -3.36772600996047
  H           2.46554971530494      1.03341509730768     -3.74144230115590
  H           3.28418106109107      1.68174543855414     -2.30188385582369
  H          -0.28226968975115     -2.06321596586221     -0.22019412896265
  H          -0.12940654928622     -1.00414252930616     -1.49668820607378
  H           3.10746890542681      0.53595982639758      0.79224961227989
  C           6.31505391862339     -2.00944538665948     -3.35146239808365
  H           4.62587924378963     -3.33955923406415     -3.38258152155471
  H           5.20867418897055     -2.95632648116339     -1.77043271309492
  H           6.15207057551691     -1.61441898756765     -4.35133022021835
  H           7.04013014835487     -2.81780211775642     -3.41683902081235
  H           6.73407450563448     -1.22301074510267     -2.72848572897248
