28
Coordinates from ORCA-job P E -37.704915716180
  C          -1.38938044851610      0.35244650808631     -2.31086019477112
  C          -0.29952471415705     -1.85692474751233     -1.08458499617710
  C          -1.65553910121112     -1.97084202163373     -1.70511349556590
  C          -2.17237558050093     -0.92629083997773     -2.33082147979171
  C          -0.96402026482068      0.60320042202678     -0.85013205130762
  C          -0.10633222910080     -0.54617219533577     -0.29018328210407
  H          -2.16535847145886     -2.92060925656589     -1.65649632786387
  H          -3.13771067968371     -0.94157045543753     -2.80934473005189
  C          -2.17007243881393      1.54484789094404     -2.81022893991149
  H          -0.10320731778662     -2.71192860709148     -0.43835924882545
  H          -0.49001596046339      0.26504520435025     -2.93140192748119
  H           0.43890202660945     -1.87635888156549     -1.89338784407675
  H          -1.87653321177055      0.70778886907906     -0.26040829062593
  H          -0.42491337909506     -0.72843758814398      0.74130103847617
  H          -0.41297064243537      1.54313882927986     -0.78748245721595
  C           1.37447914718412     -0.14798161556608     -0.25902229225893
  O          -1.74266944132552      2.38357029725153     -3.56042020766334
  O          -3.40386753709234      1.58214778246986     -2.29155659051747
  C          -4.20981233839709      2.68630732329568     -2.67434431680302
  H          -5.16974203308866      2.54785095198052     -2.18355537356655
  H          -4.33203836014043      2.70903127048560     -3.75919969875401
  H          -3.74658760780489      3.62224105307505     -2.35522898542262
  C           2.26604133358446     -1.19636614430285      0.39715442871616
  H           1.47225280655007      0.78704558397717      0.29800855377557
  H           1.71914869431864      0.03804158780653     -1.27891434583223
  H           1.91050650597676     -1.42246823977446      1.40027626719360
  H           3.28611506104483     -0.82657952807266      0.47200219619151
  H           2.28226618239475     -2.11801345312826     -0.17818540776479
