28
Coordinates from ORCA-job R E -37.615471742670
  C          -1.26935999807522     -0.30455422851008     -2.66653773957880
  C          -0.44302644451711     -3.20356873198690     -2.47811075453663
  C          -1.49035779899618     -2.64619449354984     -1.87521204468103
  C          -1.95722803003413     -1.29027840880023     -2.07685453990814
  C          -1.15811210764366      1.70340403334950      0.35214810837592
  C          -0.24527789835439      0.82827599994475      0.72822577424853
  H          -2.07382178445615     -3.23482182390176     -1.17885530546951
  H          -2.94312688068306     -1.06620203881588     -1.69302420618497
  C          -1.78353228735274      1.05998337663158     -2.83498841709966
  H          -0.15431269856165     -4.22099432762516     -2.27808374127362
  H          -0.26580667382025     -0.44216867577146     -3.03996824033838
  H           0.15298957920864     -2.67229719898385     -3.20026017722175
  H          -2.11387164061528      1.78343589633361      0.84233853958438
  H          -0.43994069645582      0.15811533067375      1.55631104725633
  H          -0.97815695505441      2.38332134775244     -0.46447717690232
  C           1.10168658510421      0.68601415909027      0.09314985002596
  O          -1.13270695812057      1.97567186624351     -3.28166226390478
  O          -3.06521678971323      1.19417689421833     -2.44952745098950
  C          -3.61396115938957      2.49553955547943     -2.57395997280485
  H          -4.67050422230274      2.40567843118825     -2.33428316665506
  H          -3.48003143427167      2.87033595761875     -3.59110001387771
  H          -3.12351959575007      3.18254073614280     -1.88070633917179
  C           1.49836842009392     -0.77817641149539     -0.07640644230889
  H           1.84306253658256      1.18029413497722      0.73017355728070
  H           1.10433431391147      1.19218116409177     -0.87386462361440
  H           1.54844547627677     -1.27388839254515      0.89115575446081
  H           2.47394606396883     -0.85506465940109     -0.55102840876725
  H           0.77041907902151     -1.30191949234917     -0.69146160594359
