19
Coordinates from ORCA-job P E -28.892449522130
  C          -1.35690108255866      0.44636195136273     -2.28594625202902
  C          -0.12914450075999     -1.66709912234360     -1.08462913075805
  C          -1.49109097118829     -1.87051625213464     -1.66497443067795
  C          -2.08837148988158     -0.85441608174377     -2.26807381183713
  C          -0.86620437625102      0.78583543920993     -0.87776767746287
  C          -0.05663656952023     -0.36789344089645     -0.25469067692246
  H          -1.94902659280293     -2.84396812488900     -1.59721845522958
  H          -3.06450006807942     -0.92061444621835     -2.71923065729971
  Br         -2.49205130623379      1.91041937362091     -2.94719630429601
  H           0.16796512761499     -2.50982540901330     -0.46172912786454
  H          -0.51483125093499      0.40875848431112     -2.98460666885471
  H           0.59245470778561     -1.59610606069817     -1.90634829167570
  H          -1.74222751972263      0.99134158390678     -0.25958362320594
  H          -0.46189057684685     -0.58514760328388      0.73802263144347
  H          -0.26495185979639      1.69706852963653     -0.91046367355357
  C           1.40212221383891      0.04829492156369     -0.07224503604139
  F           2.11153441203526     -0.95232298451273      0.54407571229422
  H           1.48946640653913      0.93231434292676      0.56821946661342
  H           1.89194529676285      0.23361489919546     -1.03475399264249
