25
Coordinates from ORCA-job NEB E -35.905386402690
  C           0.46458702542441     -0.45990938792802      0.55304252117555
  C          -0.82846834927275     -0.67381762204760      0.06602791101308
  C           0.61914228493825     -0.24894655635256      2.03543323705384
  H           1.28077824488970     -1.02124606829152      0.11446209023185
  C          -1.06212431128275     -1.35408658643253     -1.26818727632067
  C           0.74501974424010      1.39886190049304     -0.25452553834414
  C          -0.31999720703140      2.06707076827291      0.37187494500888
  C          -1.63260647123881      1.71998047831188      0.06884338444772
  O          -1.79815563967639     -0.00373335401105      0.57136250372970
  N           2.04614358799308      1.79352231839724     -0.02195918343685
  H           0.59384192683567      1.06639862211877     -1.27680778696724
  H          -0.11154749147770      2.56477724098655      1.30867891438969
  H          -1.89310170705018      1.52243964140098     -0.96224675648267
  H          -2.42952396512093      2.15982686977195      0.64807550926650
  F           1.83248638876359      0.32194445292172      2.35994998593779
  H           0.59893547138588     -1.21587545956511      2.55498414800955
  H          -0.16549967437091      0.39815516358024      2.43300868145443
  C          -0.13823022174318     -2.52779922228571     -1.56703324860027
  H          -0.96798638547497     -0.60092719273224     -2.06068065172386
  H          -2.10135959450512     -1.68991689752527     -1.27242145460788
  H           0.88144425862222     -2.19686956417417     -1.74786064740371
  H          -0.48131052572354     -3.05092851640758     -2.45685135911223
  H          -0.13404926030024     -3.23026099827129     -0.73690037055044
  H           2.24058357617157      2.07768124664143      0.92762485516073
  H           2.76099829500442      1.18365872312793     -0.38789441332938
