25
Coordinates from ORCA-job NEB_product E -35.938667038260
  C           2.62410188493629      0.69689873887230     -0.87765841648399
  C           1.30886125526508      0.21063302898448     -1.46507243007320
  C           2.42370226394762      0.91400425120527      0.62159188884163
  H           3.41629008221725     -0.03876832677594     -1.03492211680255
  C           1.40140551078904     -0.97801287031991     -2.39462369958414
  C           3.06379648502957      1.99298114282306     -1.62544612486623
  C           2.40902472487847      3.22183883537574     -1.05434658382301
  C           1.38943113539995      3.84273495639194     -1.61602964421788
  O           0.25995314230963      0.73864266092128     -1.19254680010654
  N           4.51888653377339      2.03590836477883     -1.60829966107994
  H           2.76240827284750      1.89345468538798     -2.67535981812496
  H           2.85190358840988      3.59843091692230     -0.14077176104027
  H           0.93767888555724      3.48166595639261     -2.52507975839132
  H           0.95252647270566      4.72676629326088     -1.18367074571748
  F           3.56025680747125      1.41201296329390      1.21235004466045
  H           2.20313076499827     -0.03501008531765      1.12169231820620
  H           1.61740163363396      1.62863414366968      0.80782402063877
  C           2.27001738074685     -0.71921062932077     -3.62522880622690
  H           0.38997191877433     -1.24687104006675     -2.70492675481823
  H           1.82250816813627     -1.81020401177521     -1.82451816955561
  H           1.85032134483680      0.08756021294942     -4.22121673143307
  H           2.30393360435239     -1.61450908656890     -4.24144035429436
  H           3.28614800941191     -0.45529795752061     -3.34542833068804
  H           4.85170730783838      2.11837330219824     -0.65268560589611
  H           4.85053282173303      2.84434355423784     -2.12298595912321
