25
Coordinates from ORCA-job NEB_reactant E -35.935350732050
  C           2.00776696847786      0.03501088608470     -0.39249634145150
  C           1.44640253738953      0.32772660390871     -1.56516014513299
  C           2.40334349775549      0.89361627796318      0.76766204762170
  H           2.23828820824867     -1.00626210713841     -0.21971367765856
  C           1.19487165447668     -0.76428490289416     -2.57990716442947
  C           3.54969015290833      2.80960457215938     -2.08093774778521
  C           2.53524376709622      3.29369408087549     -1.36872774744035
  C           1.14288865923854      2.72773892243401     -1.38345890612299
  O           1.00668278469935      1.50810628919548     -2.07757189512321
  N           4.80421396047740      3.37753085206658     -2.16541717371545
  H           3.41531992937427      1.93706564278637     -2.70356179521758
  H           2.65734987990079      4.17653263509623     -0.75626750387762
  H           0.47415149420490      3.41337936744949     -1.92141246542996
  H           0.76083517390476      2.62889071446518     -0.35711144021286
  F           3.44061373881681      0.28207988762304      1.44649888980695
  H           1.59320695300141      0.99618069047748      1.50328784303676
  H           2.77614521019430      1.87979134764560      0.47556390084253
  C           2.32799434022537     -0.82674575496578     -3.60410676457242
  H           0.25890462899227     -0.54345589963485     -3.09462928983764
  H           1.10148298388065     -1.72510670269972     -2.07527967536539
  H           2.40107759932549      0.11589847512185     -4.14087496239339
  H           2.14174033904552     -1.61949493739231     -4.32461059139999
  H           3.27555658740497     -1.02401488849354     -3.10756918393130
  H           5.00889360700771      4.06956937308586     -1.45987361020345
  H           5.56453534395273      2.73874857478017     -2.33472460000661
