24
Coordinates from ORCA-job NEB_product E -35.653689461260
  C           2.50964096901758     -0.00353037331739     -0.87038517933917
  C           1.24177056289530     -0.80962473405587     -0.53460853427182
  O           2.32679744718214      1.38060890793155     -0.74577322687596
  H           3.33368299736160     -0.34329967951071     -0.21654290331345
  C           1.50709158750051     -2.23232150967430     -0.09729480767178
  C           2.85247281843135     -0.28682988705004     -2.33192294456663
  C           1.73894465596402      0.06506169656375     -3.24655257664662
  C           1.28532603141729     -0.74594135273156     -4.18491139350795
  O           0.14477823651900     -0.32708479603326     -0.61271249881470
  I           4.59606102112945      0.92270157252418     -2.84156904949270
  H           3.17463792550158     -1.31961872244182     -2.46515259488441
  H           1.31373711241281      1.04494998466417     -3.08672842334674
  H           1.71004643601136     -1.72415008388562     -4.34888216854805
  H           0.47082355759018     -0.46464981175311     -4.82852418350409
  C           2.15810825868223      1.83440819145667      0.57300921205852
  H           3.00242861036212      1.53035336741526      1.20488361097464
  H           1.22666842178981      1.46272898751283      1.01143173404407
  H           2.12235202811912      2.91992319819554      0.51390932026217
  C           0.25486393430046     -3.09540625921006     -0.17544591349567
  H           1.86446925594561     -2.18389609227506      0.93640374519949
  H           2.31471845873895     -2.65518547513059     -0.69834972174183
  H          -0.54495727701445     -2.64409270395494      0.40541663769248
  H           0.45394397181703     -4.09162576778430      0.21031219631441
  H          -0.08110702167505     -3.17717865745533     -1.20621033652420
