18
Coordinates from ORCA-job R E -28.286983407680
  C          -1.39189258398413     -0.02055919047316     -2.76876817948916
  C          -0.10912652708783     -2.50710290891946     -1.65469219174684
  C          -1.40455742592432     -2.34807936096455     -1.91747479445972
  C          -2.02453999106921     -1.09787233841860     -2.28961289877731
  C          -0.72104231187451      1.63955361517798     -0.15779422161470
  C           0.11824675411985      0.69885581666399      0.22372942592902
  H          -2.07785068404021     -3.18995197610222     -1.82703953561548
  H          -3.10082781471694     -1.03132502410211     -2.17978371270495
  N          -2.10441482454999      1.17188561339865     -3.08076038632135
  H           0.29346565331616     -3.46366381284717     -1.37060813222819
  H          -0.33368161541011      0.05002141641029     -2.96051991431179
  H           0.58499425016226     -1.68517440964105     -1.69198266580332
  H          -1.77260785287180      1.59298567661380      0.07593654770392
  H          -0.20524641649113     -0.16109709745907      0.78801412019215
  H          -0.39904353545224      2.50068912475071     -0.72046771675139
  H           1.17145774107297      0.75057384179654     -0.00092325463428
  O          -1.44930796377390      2.10051069873435     -3.51023012729422
  O          -3.30526485142494      1.19796031538109     -2.90143236207238
