20
Coordinates from ORCA-job P E -32.719993655700
  C          -1.49558739055746      0.42721204004145     -2.14448983677019
  C          -0.53053367760802     -1.44923964273568     -0.36128619272155
  C          -1.96869891142018     -1.51965896577348     -0.76170881691236
  C          -2.44168424481253     -0.59775993337896     -1.58611833686338
  C          -0.57729554302219      1.02173370292165     -1.04836343154741
  C          -0.21888469815663      0.00374515454432      0.05677741385900
  H          -2.58910539319393     -2.29926818770486     -0.34985620251777
  H          -3.46990730469822     -0.59006974886614     -1.91691777226294
  C          -2.21766789057430      1.57585146251942     -2.83899540704379
  H          -0.30862418815949     -2.12809391333697      0.46212597585760
  H          -0.86080541513645     -0.05805604352524     -2.89554999555807
  H           0.10854648431061     -1.71944405462861     -1.20744564104449
  H          -1.06505322933844      1.88427414975493     -0.58712842726252
  H          -0.79822807116134      0.22117577590674      0.96245342396152
  H           0.33256477878451      1.38778022662818     -1.52772627537660
  C           1.17954392573228      0.12049277456936      0.39634208833143
  O          -1.90929699925072      2.00534622930174     -3.91030323099757
  O          -3.23276376468218      2.10689153543604     -2.13724358271105
  H          -3.38645628749394      1.63585726881231     -1.30575140972853
  N           2.29138782043861      0.20495016951380      0.64621565730869
