20
Coordinates from ORCA-job R E -32.633231258470
  C          -1.50610469725333     -0.59530779889090     -2.97758619575813
  C          -0.12384360055533     -3.22436250439713     -2.52692132561727
  C          -1.33986209363380     -3.06200301226141     -3.04138929635215
  C          -2.06698559850662     -1.80752547463506     -3.07560489269859
  C          -0.27167704159883      2.46338755712110      0.14733628596648
  C          -0.25966104238812      1.17270461079875      0.46061919282023
  H          -1.87164711295221     -3.91489699555701     -3.44485536199227
  H          -3.14437482157025     -1.91455128647106     -3.16912484369483
  C          -2.24674106098908      0.67641246104002     -2.92341095639084
  H           0.35571893411729     -4.18785548806310     -2.52095077760718
  H          -0.44031818757050     -0.49089073900144     -2.84656940065007
  H           0.41845873749139     -2.41330203326829     -2.06796656032782
  H          -0.84329477983669      3.17423887497155      0.71740496275931
  H          -0.80916011592619      0.76890324530405      1.30135935481270
  H           0.26526544078702      2.84028538812712     -0.70617020857003
  C           0.47345952663542      0.22792389792236     -0.27661210198732
  O          -1.80718948094884      1.66441342166588     -2.39418017860320
  O          -3.47126009142513      0.70200368586979     -3.49152573955895
  H          -3.68837076773335     -0.13527272861823     -3.92152041630363
  N           1.06922785385715     -0.56322508165702     -0.85717154024645
