21
Coordinates from ORCA-job NEB E -51.978450050800
  C           0.19562914600631     -1.03440505183770     -0.26803247784039
  C          -1.18632234713316     -0.71003639068731     -0.60502742686998
  O           0.25832110814953     -1.96960850968567      0.73574657047300
  H           0.81657537460203     -1.28599978060428     -1.13423088927917
  C          -1.59145231145743     -0.43007979784348     -1.97140673763647
  C           0.79687107289009      0.46650921694506      0.30928423625120
  C          -0.04427051377664      0.77668500102778      1.42834053442012
  C          -1.43506600621768      0.94737302977264      1.16058263149525
  O          -1.96597417057581     -0.28687775235339      0.34466732974851
  C           2.28820218866434      0.40233473767948      0.58594460835194
  H           0.65115114873300      1.12079980997205     -0.55540591167795
  H           0.27951674641704      0.50496534748320      2.41998876067478
  H          -1.67253245733080      1.74739017172066      0.45636640650186
  H          -2.08012983410589      0.97660787521049      2.03239045631159
  H           1.17585885128556     -2.17635996897553      0.95869691602081
  Br         -3.49127681241595     -0.32297523915487     -2.13993925304556
  Br         -0.89813396035021      1.59737037955106     -2.53163751325622
  Br         -0.84590942947886     -1.57342784878178     -3.30681680612198
  Cl          2.85314339922148      2.06048712336326      0.94871622451408
  Cl          2.71102272305909     -0.62999463494307      1.97270761257252
  Cl          3.18477608381394     -0.18075771785860     -0.84093527160792
