21
Coordinates from ORCA-job NEB_product E -52.006270653180
  C           3.07748831657680      1.27226106188626     -0.06699068071928
  C           1.64567861576110      1.28687797016475     -0.58921092359276
  O           3.23871074433278      0.26095336511619      0.88025243890999
  H           3.79582621128117      1.16712701475848     -0.89457512395318
  C           1.47859683686114      1.48690979851988     -2.09193952106620
  C           3.29331167805637      2.64911616946420      0.62021280535766
  C           2.48263245830365      2.72336091496692      1.88365806752448
  C           1.52246594961396      3.60739022478950      2.07104444632225
  O           0.68288058958322      1.09371000499171      0.09089782036233
  C           4.77591721824270      2.90624822540997      0.90346551544712
  H           2.97438305068234      3.44047098558262     -0.06706328675059
  H           2.72230998037506      1.97616407555982      2.62357400063690
  H           1.27191736920682      4.35087678736230      1.33133107777460
  H           0.94833305760452      3.62641790984472      2.97997652004481
  H           3.14398678591795     -0.60743603380591      0.47223887696084
  Br         -0.38028781170950      1.78307590623858     -2.51449405996371
  Br          2.56217699189670      2.91485981765141     -2.82564115969098
  Br          2.06256520946850     -0.22469226622625     -2.85693353233827
  Cl          4.93352311812047      4.53070790758261      1.61717492959042
  Cl          5.48172060520315      1.73281304432875      2.01496383239983
  Cl          5.71236302462110      2.88958711581349     -0.61524204325628
