23
Coordinates from ORCA-job NEB_reactant E -40.306702675060
  C           1.60964519411860     -0.33070303956448      0.12628396684682
  C           1.32055833917121     -1.55164003363862      0.60200350454826
  C           2.02007271219816      0.12753812169897     -1.23321426458971
  H           1.50337844805101      0.48211675912982      0.82605732785198
  C           0.89858019920386     -1.69624331360412      2.04514197788323
  C           4.21310655670385     -4.23820897897957     -1.30158976498433
  C           3.50105047201097     -3.20088847700502     -0.90410596030531
  C           2.02982682894656     -3.07072875461503     -1.16447596355705
  O           1.32877310671121     -2.76805500989100      0.03062117944644
  Br          6.06756621426657     -4.38359195653985     -0.97301536242361
  H           3.81318613558746     -5.07415374999249     -1.85316998137979
  H           3.95861414043275     -2.39045739483954     -0.35503676344295
  H           1.61242320023413     -4.02574282686536     -1.49559049431181
  H           1.84588232936575     -2.33280828319648     -1.94813794944896
  F           3.23491853549053     -0.35338718903524     -1.63561378945677
  F           1.14701000423967     -0.25907049364052     -2.21255391737634
  H           2.08337931003421      1.22391766308224     -1.28263267006024
  C           2.11077396390523     -2.03892238785927      2.91226131107181
  H           0.17256716554603     -2.50753668203407      2.10496175709484
  H           0.43360219888554     -0.77724894920023      2.39814630842830
  H           2.57402110634986     -2.95969343516770      2.56640578832700
  H           1.80553192843720     -2.17338329393852      3.94652934932747
  H           2.84793191010966     -1.24050829430392      2.86842441051071
