23
Coordinates from ORCA-job NEB_product E -40.313826675210
  C           2.72652775602976     -1.60180140842001      0.22113191224050
  C           1.45825728480040     -2.20217820637240      0.85422231079728
  C           2.35025886792753     -0.27498787101684     -0.44974880033522
  H           3.42770329636339     -1.35847802754106      1.02707879160899
  C           1.00137840351040     -1.53203594449802      2.12643777521727
  C           3.37084055136042     -2.62120899863555     -0.73281858574136
  C           2.86868164038412     -2.59016534850213     -2.13515574156810
  C           2.15985129969936     -3.57270889648978     -2.65845706929677
  O           0.92335574186903     -3.17500333950411      0.39998653553562
  Br          5.33735071777688     -2.34978654164026     -0.74070707228545
  H           3.23374941999586     -3.61823020218975     -0.30656657250019
  H           3.13048102236327     -1.71734921934267     -2.71661950110440
  H           1.89191328468419     -4.44621032558314     -2.08766317342469
  H           1.80032589521780     -3.52602944271859     -3.67110050817545
  F           3.37036877808511      0.22716679780238     -1.17608347383763
  F           1.30798640343901     -0.41861533991070     -1.30057019096655
  H           2.06507320378736      0.49482066463174      0.28551572847776
  C           1.69267265769249     -2.21661913587167      3.31184266456814
  H          -0.07709375770951     -1.66636120752063      2.21755830497599
  H           1.23539137882690     -0.46812044377738      2.12854716931042
  H           1.46680499752096     -3.27984297354060      3.31416280996736
  H           1.33787987388992     -1.78451826046106      4.24348232977475
  H           2.77194128248534     -2.09073632889774      3.26292435676171
