23
Coordinates from ORCA-job NEB E -44.593686798330
  C          -0.31176730402777     -0.16916664806700     -0.89548896715609
  C           0.49312475983927      0.99676686423862     -0.94556652215339
  C           0.12615882528762     -1.44347717787982     -1.56476343619192
  H          -1.36138589060229      0.02489739120106     -1.09432447865670
  C           2.00659084917732      0.94891957487008     -1.01603948977908
  C          -0.47891697399866     -0.36776430114729      1.02555406557651
  C          -1.02246110669478      0.87962958213728      1.36974917011812
  C          -0.25819683415011      2.04534631898420      1.16831491605817
  O          -0.04514806057488      2.08207976836006     -0.50535392602239
  C          -1.30811336580361     -1.59236675174154      1.30334489189548
  H           0.57394448353481     -0.50783545504579      1.24724960446784
  H          -2.09996622841964      0.97297440714817      1.38863834831246
  H           0.78144153206368      2.02000659891084      1.47482749045658
  H          -0.73595198694285      2.99966728829406      1.34307693146991
  Cl         -1.23001193377111     -2.58611808181247     -1.72193656791986
  Cl          0.65184755940115     -1.08540627434212     -3.25341752813087
  Cl          1.46276949220553     -2.26591835385507     -0.74291155954107
  F           2.53381695677709      0.51438220536044      0.18889853562052
  H           2.39173779756100      1.95999709476422     -1.17606564899733
  H           2.37777768690418      0.26929019381442     -1.78456516577739
  H          -0.83300070401413     -2.49391577923955      0.93231457690232
  H          -2.30348868283123     -1.50761163155352      0.87518859001208
  H          -1.41080087092061     -1.69437683339927      2.38327616943610
