23
Coordinates from ORCA-job NEB_product E -44.626529494920
  C           1.53832969836441     -0.49890150131663      1.76036019063885
  C           2.96968528787155     -0.25309561874294      2.26197986438174
  C           1.38763360608831     -1.37281024646702      0.52186390809305
  H           1.17433958240904      0.48891510734416      1.44898742793614
  C           3.99386576289911     -1.36513859810367      2.11288364540761
  C           0.68688528704173     -0.87788619079464      3.02113047308129
  C          -0.72038260000848     -1.26941556557446      2.67347042584651
  C          -1.76006051832788     -0.46981343581284      2.81840369876673
  O           3.23224169652825      0.78414192003145      2.80083702284214
  C           1.30596041863576     -1.95774350367573      3.91021443710729
  H           0.65168263674439      0.04759783014741      3.60610924255921
  H          -0.85175121540516     -2.28793852260320      2.33631877816147
  H          -1.65249281475457      0.54481907882739      3.16563636436070
  H          -2.76106702588546     -0.79253852966899      2.59083842807053
  Cl          1.60882923543540     -3.10766559036934      0.78243766255919
  Cl         -0.22423393629956     -1.13739729322457     -0.21596936715943
  Cl          2.57177493706694     -0.84514789667092     -0.72436549253691
  F           5.06292896850802     -1.12310588125739      2.92843420174535
  H           4.37296170432805     -1.39341410878518      1.08531800557362
  H           3.58770876113952     -2.34193556626955      2.38614142277640
  H           1.42797534397710     -2.89818296339630      3.38152415639072
  H           0.63772477102539     -2.13093483779292      4.75139025485178
  H           2.26446041261813     -1.63660808582411      4.30915524854601
