23
Coordinates from ORCA-job NEB_reactant E -44.628166729970
  C           1.48078654801247     -0.38402463422358      0.25692698205284
  C           2.16807617049564     -1.17145162876316      1.09890652073290
  C           1.93938845327758      0.07204098580836     -1.07508473470493
  H           0.49242912028331     -0.04405080887044      0.52048033951874
  C           3.56450559638681     -1.69443980192205      0.85159025164031
  C          -0.05189057012208     -1.12481260425940      5.20703241258348
  C           0.23894942847208     -1.80329809284564      4.10995730935848
  C           0.45118910069232     -1.17885752433161      2.76596322468078
  O           1.72591686104063     -1.59609445016530      2.28898537356848
  C          -0.27795634409319     -1.73745984882258      6.54566614819576
  H          -0.15316567591162     -0.04762573506576      5.16410821777110
  H           0.35281917892700     -2.87751609390405      4.13394422237362
  H           0.41640144332149     -0.08498860750258      2.83507159107155
  H          -0.32430258806656     -1.51894232992321      2.06361829974582
  Cl          2.13275313774593     -1.31541095591001     -2.21102489879535
  Cl          0.73133479712204      1.15949162269798     -1.78962065632351
  Cl          3.49612082164316      0.94627840458935     -1.02305163893847
  F           4.49193904897816     -0.80932704796806      1.34327119973951
  H           3.77441880194777     -1.82750513296353     -0.21153398769872
  H           3.70148316072397     -2.63035284379734      1.40197292786211
  H           0.42753843060717     -1.32642491492956      7.26659329916327
  H          -0.15735720274428     -2.81659672155280      6.50886157421636
  H          -1.28157771873981     -1.50443123537503      6.89976602218587
