22
Coordinates from ORCA-job NEB_product E -32.158625038800
  C           2.55905816202434     -0.37550109592328      1.16143420643041
  C           1.18945050375586      0.01452848153705      1.72764805639882
  C           2.36260586085302     -0.76330826435359     -0.31015329122519
  H           3.23836088191376      0.48144894119751      1.22224178132116
  N           1.16853309993193      1.19890727369099      2.38076639075237
  C           3.08178206894713     -1.48260463763773      2.08862551559420
  C           2.51025834380520     -2.83088433875524      1.83645957421325
  C           1.76180898927711     -3.47042246398400      2.71571624442685
  O           0.21011523722196     -0.68616045484868      1.62730062175662
  Br          5.06622912558131     -1.59068560200447      1.98915819808136
  H           2.90274746085388     -1.18683133232681      3.12670009168105
  H           2.75324714722111     -3.28035542886273      0.88450124080609
  H           1.51278391350530     -3.04059204673160      3.67212905790912
  H           1.35054220746961     -4.44203390997302      2.50601597816046
  C           3.64743767541569     -1.11528647685005     -1.04871336392116
  H           1.89709216630027      0.09441631609059     -0.80437756304442
  H           1.64946473981472     -1.58771724938319     -0.36146430924257
  H           4.38878250309869     -0.32727991279643     -0.93156927103275
  H           3.43738495355057     -1.23190376663466     -2.10951629912120
  H           4.08055626460032     -2.04472662246356     -0.69047938552114
  H           0.29517974829880      1.51817920014558      2.76832766483060
  H           1.96747894655940      1.80441339086729      2.44044886074608
