21
Coordinates from ORCA-job NEB_product E -48.500671186150
  C           2.96305672589559     -0.39139242720461     -1.00508872737300
  C           1.54059074827530     -0.84108325055800     -0.71207492216163
  N           3.17299813824610      1.00735345712642     -0.73553904941486
  H           3.66078525805743     -0.99077601131137     -0.40336418109907
  C           1.27410143733517     -2.37298959122862     -0.82366303563062
  C           3.28928836063678     -0.68907206274401     -2.49496284302281
  C           2.51296670785039      0.16557075147360     -3.44571482652496
  C           1.59809038740921     -0.31102224762792     -4.26892241348545
  O           0.64775378859115     -0.10020838325036     -0.42207599742673
  N           4.76858069326287     -0.44534375020994     -2.66433257912902
  H           3.14230083806068     -1.75338411547786     -2.70908121509316
  H           2.75871986024925      1.21662211162209     -3.42123474652949
  H           1.35071282249085     -1.35914411670667     -4.31069213556870
  H           1.05319781027417      0.33489618827828     -4.93393554355482
  H           2.36686988463709      1.55415615564522     -1.02009174228915
  H           3.33684125482555      1.17889635167179      0.24799537006518
  F           0.32663779166126     -2.77000998294587      0.01863389275148
  F           0.87895310303978     -2.69669421947433     -2.06545109600964
  F           2.37292034686448     -3.09788279139898     -0.56986563990055
  O           5.48889417123098     -0.93945522279457     -1.83829790714461
  O           5.11263987110592      0.18786315711572     -3.62214066145838
