27
Coordinates from ORCA-job P E -33.619527945830
  C          -1.34899268477618      0.24733698218434     -2.49645608482428
  C          -0.20761815795728     -1.74534965289666     -0.97924480887747
  C          -1.60505110668439     -1.94175889534318     -1.47509333987876
  C          -2.15434502204933     -0.98189320118570     -2.20144129647599
  C          -0.71066922507905      0.75696248959604     -1.19082119155078
  C          -0.08884723642466     -0.34883666629055     -0.32364468056044
  H          -2.12407695333591     -2.85155615850641     -1.21639423321121
  H          -3.16111836071940     -1.04763078156810     -2.58411702559098
  C          -2.19452109116465      1.32619054031268     -3.17718771436280
  H           0.06840436082875     -2.52134777752155     -0.26608319952350
  H          -0.53458851703906     -0.03467042377905     -3.17740882175073
  H           0.48770275824079     -1.79052240023949     -1.82398951337920
  H          -1.47769136866665      1.27827333827981     -0.61537788555280
  H          -0.61054391585515     -0.39875570197498      0.63736689028771
  H           0.07355989070361      1.47449505799427     -1.43708821411791
  C           1.38154598369955     -0.07967206114425     -0.03396426021869
  C          -1.38006759100879      2.52807649342850     -3.64073863788864
  H          -2.97508119092192      1.65850348823762     -2.48805160708200
  H          -2.68750552937346      0.87935619147796     -4.04462150108883
  H          -0.95660645031006      3.06442943324224     -2.79600029230293
  H          -2.01102298373328      3.21705524287007     -4.19810173874110
  H          -0.56614848009016      2.20929030168060     -4.28842491036421
  O           2.01857045693968      0.77213811535321     -0.59971497462969
  C           2.00716829233241     -0.98751847722819      0.99758824365568
  H           1.29543391779658     -1.28018983411283      1.76357835217385
  H           2.86256062499488     -0.49175421009311      1.44982862560589
  H           2.36841957965314     -1.88422143277329      0.49584382024981
