27
Coordinates from ORCA-job R E -33.530138288760
  C          -1.35721152088421     -0.03365805784581     -2.94507413417448
  C          -0.63750279026376     -2.39783345592905     -1.19451833900968
  C          -1.85150554907976     -1.89192871823492     -1.38276072516809
  C          -2.20691757906849     -0.86652697417638     -2.34678224566163
  C          -0.79232229581037      1.17421913163015      0.30619292524813
  C           0.15079112828426      0.30549468362043      0.64687836878921
  H          -2.67627015339645     -2.27226268350450     -0.79155578864231
  H          -3.26471301275883     -0.78900930111146     -2.57109549704631
  C          -1.75151151472551      1.00910719192072     -3.93729343167101
  H          -0.45392772833787     -3.16288657144449     -0.45871975850213
  H          -0.30323567572767     -0.06118741393298     -2.70768976444497
  H           0.20954841913896     -2.08032692568889     -1.77756952009024
  H          -1.67760112387394      1.33266942345953      0.89776739810918
  H           0.08027236943534     -0.28995758102359      1.54565732826654
  H          -0.68961769406251      1.75247047143468     -0.59697850383560
  C           1.35693487189732      0.10809439547295     -0.18635737127659
  C          -1.35338715308162      2.40610608381394     -3.45931025689646
  H          -2.82743168400763      0.97085153087911     -4.12259611951745
  H          -1.23688791568225      0.80414670421207     -4.88119092943746
  H          -1.92156359288811      2.67774430161573     -2.57175930154731
  H          -1.55115848821616      3.14530327625569     -4.23242817337599
  H          -0.29346846788133      2.43139413404496     -3.21627995672535
  O           1.52016902460936      0.66358129012005     -1.24927843635721
  C           2.36938401937450     -0.84288429659685      0.40038967409008
  H           1.90755971456343     -1.81643661053276      0.55182838987910
  H           2.69794147347395     -0.47043402872909      1.36906197189561
  H           3.22554291896934     -0.94213999972922     -0.26142780289759
