23
Coordinates from ORCA-job NEB E -32.461263281680
  C          -0.35686636214689      0.28562085264999     -1.41789921980301
  C          -1.64104326463037      0.83879874707621     -1.34943412281861
  C          -0.24817613079239     -1.21991269882598     -1.49837756837552
  H           0.34189731267830      0.77528598713610     -2.09001918550679
  H          -1.77671683884946      1.87750014345918     -1.66790096494185
  C           0.25787871250728      0.77941710952888      0.33857308233170
  C          -0.71507230887123      0.19246412788527      1.15750047219069
  C          -2.05286649565199      0.65132517370428      1.04482615473482
  O          -2.50076159075616      0.34588381999601     -0.51458275548466
  C           1.72527140886113      0.40767187330284      0.45211073831942
  H           0.14395055585712      1.85039404857133      0.18753176485361
  H          -0.56189500078392     -0.81221414672214      1.52024869159607
  H          -2.20393243427666      1.72696564901466      1.07322415349947
  H          -2.80538650825163      0.11212528518284      1.60646782233664
  F           1.05056967319269     -1.61678958197582     -1.70077862650852
  H          -0.81153731085518     -1.57599239592971     -2.36965858469980
  H          -0.61386245916360     -1.72340137210881     -0.60087650978593
  C           2.02710893563975     -0.88000028737765      1.20890521894913
  H           2.22017502762348      1.23512290607562      0.97012517356416
  H           2.17100639322171      0.34692677025073     -0.54172605699724
  H           1.65635199587596     -0.82500061824225      2.22969868668136
  H           3.10381597894631     -1.02888584463801      1.24458544503854
  H           1.59009071062575     -1.74330554801355      0.71745619082632
