23
Coordinates from ORCA-job NEB_reactant E -32.497560126880
  C           1.67867441036856     -0.32907006493380      0.20659029308440
  C           1.44712316772565      0.93638621958884      0.53767530839365
  C           1.93531906354910     -1.53635789090851      1.05466078071547
  H           1.68605021097482     -0.55478919815076     -0.84921153548405
  H           1.27739891436998      1.65440212849808     -0.25593415144799
  C           3.47073605137102     -0.22621796422357      4.02963911081600
  C           3.00451345564620      0.73489887263247      3.24922615795719
  C           1.54638537168807      0.94333022165535      2.95164543663166
  O           1.32578590289913      1.59184614527770      1.71297284269984
  C           4.90380163516253     -0.47382118368290      4.38447184165204
  H           2.77408575275848     -0.92362067080018      4.48255823912279
  H           3.65787765486472      1.45690704721587      2.78339795564408
  H           1.12465822892101      1.64057804118914      3.68705851493561
  H           0.98609402569433      0.00300128339968      3.01033051472926
  F           2.56145988843235     -2.50072261056273      0.29348325397543
  H           1.00221282094381     -1.99914727895896      1.40581767553796
  H           2.59957509945705     -1.33907325889395      1.90146273766543
  C           5.90053871342897      0.48204166813154      3.74366617620160
  H           5.15065682515845     -1.50145226098686      4.09807796618319
  H           4.99647127126269     -0.42229821299761      5.47420218127314
  H           5.84749445059305      0.42162832820983      2.65933539820461
  H           6.91112108099163      0.22372048738191      4.05105457841957
  H           5.70186600373836      1.50663015191941      4.04851872308910
