20
Coordinates from ORCA-job NEB_reactant E -37.796201557760
  C           1.74116599901853      0.00780541395169     -0.00399873121164
  C           0.99530650691216      0.89602022962102      0.65801130140926
  C           2.25335476951608     -1.22789737781526      0.65467871100671
  H           1.98732871326090      0.18456074474334     -1.03370738499946
  F           0.55931529524863      1.99164856044105      0.00506917891658
  C          -0.28388913348682      2.29682487377347      4.91821219792174
  C          -0.45889069618917      1.46710611545500      3.90371999382637
  C          -0.20464008259596      1.82437425275039      2.47478830603434
  O           0.63223061494304      0.80617148127411      1.91593904038711
  C          -0.55136905347597      1.95596219875777      6.34332842932577
  H           0.06321821788253      3.30671487262439      4.73751278528224
  H          -0.79442512436341      0.45255366750655      4.06172953100528
  H           0.28773796148709      2.80013986603951      2.39201003863043
  H          -1.14914562379565      1.85753505807127      1.91319459703266
  F           3.07501891615588     -0.94622355190723      1.70274494185412
  F           1.24783640804218     -1.98033311851923      1.17904707840992
  H           2.81612996719285     -1.86973850448463     -0.03957881639577
  H          -0.89057844481301      0.92873414635438      6.44316479658113
  H          -1.31040876783245      2.62213209430143      6.75243707690865
  H           0.35440355689257      2.08880897706097      6.93359692807457
