15
Coordinates from ORCA-job NEB E -27.479460658580
  C           0.66022775010658     -1.10675334359179     -0.57832020643793
  C          -0.37311830023439     -0.73780784691211     -1.45779363469849
  F           0.38373962447963     -1.98621718268427      0.40754084092135
  H           1.65892634610744     -1.29127894854862     -0.96846611613812
  H          -0.06416817340925     -0.28059569635271     -2.40383480603939
  C           0.75121759744142      0.50886268819192      0.43225579702380
  C          -0.55913459611069      0.59238861305986      0.94575951415446
  C          -1.60432028043711      0.81874709879519      0.02775861667222
  O          -1.55209005395972     -0.50924393767013     -1.00483322817342
  C           1.82480501873230      0.26866395694518      1.34032648989563
  H           1.03197269452130      1.20276085254435     -0.35791000716017
  H          -0.77335318928102      0.07380900740280      1.86907141777415
  H          -1.46448388740231      1.60362777972773     -0.70925086606865
  H          -2.61735951841665      0.75869386890593      0.40145915617900
  N           2.69713896786247      0.08434309018668      2.05623703209554
