15
Coordinates from ORCA-job NEB_reactant E -27.520679365160
  C           2.11749501418540      0.17096489779083      0.77626260224225
  C           1.32682802105455      1.16122660702261      0.38573204715333
  F           2.33766014850526     -0.19485239091874      2.06139810620059
  H           2.66864602997318     -0.44274589085334      0.08442819335955
  H           1.23448510505691      1.34116497124563     -0.67601919414327
  C           2.50566380904378      2.07996722833204      4.10905749265123
  C           1.88873200218734      2.55202640760585      3.02843689019152
  C           0.60259693139912      2.00566064204769      2.49222448767915
  O           0.55764551389925      2.03027945789172      1.07446856509052
  C           3.70217532186025      2.64150557830742      4.59474664653595
  H           2.11976865388280      1.23762568657503      4.66775522325595
  H           2.30316947581861      3.38353724234735      2.47308411303958
  H          -0.22142757699420      2.66262351667885      2.79705313183887
  H           0.40741598816620      0.99861951881163      2.87714202454557
  N           4.67124556196156      3.10149652711543      4.99962967035918
