15
Coordinates from ORCA-job NEB_product E -27.519865481800
  C           2.26114891206825      1.60840572169431      1.11417972799931
  C           2.08686978824586      2.76486090794905      0.15008793878704
  F           1.43904238706695      0.57746270670119      0.72672603762185
  H           3.29194980902996      1.23043396598150      1.08174414536222
  H           1.24646950396016      2.60921568879452     -0.55136637811088
  C           1.88957635146799      2.02922119705561      2.55578986903261
  C           2.01599263282009      0.85453027871484      3.49442391983116
  C           1.00458566277339      0.36412926004408      4.18308032140058
  O           2.76081613017672      3.75016265336906      0.14832423702486
  C           2.77269629494178      3.08229993796440      3.01287959550781
  H           0.85833779760768      2.40291185611125      2.56007006171611
  H           3.00764592668486      0.42961482699079      3.56593964894033
  H           0.01192332380044      0.77856346728101      4.11825079780687
  H           1.12902552939298     -0.47824619242881      4.84057723823953
  N           3.47731994996287      3.87793372377719      3.42929283884063
