16
Coordinates from ORCA-job NEB E -26.414674000220
  C          -0.13434607236755      0.84397516015198      0.99820775934955
  C          -1.26994339992869      0.14765920666783      0.57455388902690
  N           0.36303107598842      1.93426055669858      0.28956815062246
  H           0.05620687819785      0.87350854681382      2.06453048624971
  F          -1.74040531885995     -0.77282113741863      1.50344780978705
  C           1.12378413754548     -0.64792749829334      0.36500046937856
  C           0.78981564212230     -0.75681013124249     -0.96942690808800
  C          -0.48604451572967     -1.26724281543999     -1.30272828217003
  O          -1.54072257186343     -0.10024475327231     -0.63245779632910
  H           2.06023645305795     -0.18760050956280      0.63805184428584
  H           0.76957658946996     -1.39880385541932      1.05708528272949
  H           1.28832135904416     -0.11822633481433     -1.68448785506900
  H          -0.83751803967706     -2.13344147781311     -0.75310660769094
  H          -0.78975268287426     -1.25888007171243     -2.34006107787235
  H           0.41621360241734      2.79607701160913      0.80906568393207
  H          -0.06845313654285      2.04651810304740     -0.61724284814220
