16
Coordinates from ORCA-job NEB_product E -26.460346916790
  C           2.89309415880870     -1.09072764799211     -0.22764375454677
  C           1.46936819880180     -1.31184694909005      0.22009367330549
  N           3.04425498685386      0.09171031488127     -1.04675954432719
  H           3.51344579387384     -0.97379058357563      0.67065183299479
  F           1.38308403943610     -2.32808747587371      1.12899441124196
  C           3.37172557850094     -2.35325346546102     -0.98537119589211
  C           2.46632386748312     -2.68709634815436     -2.13213375411382
  C           1.62326905871509     -3.70210640436380     -2.13047063384876
  O           0.49030100074537     -0.73787170625834     -0.10432381855093
  H           4.37795383730863     -2.14455875516886     -1.35100266455533
  H           3.40861659530621     -3.18813375921647     -0.28424085606305
  H           2.53031236510506     -2.02881981711274     -2.98791939704107
  H           1.54401472287142     -4.37246347543633     -1.28987237758793
  H           0.97831043727663     -3.90919573803103     -2.96683589857985
  H           2.80565122832128      0.92607458429007     -0.52224236563522
  H           2.41827413059195      0.04636722656310     -1.84402365680021
