24
Coordinates from ORCA-job NEB E -52.865778568990
  C           0.31076744710271     -0.49124385879790      0.48646335377552
  C           0.13618700200083     -1.13674359405795     -0.76042382508839
  O           1.59194011423598     -0.18017992511863      0.90795729205747
  H          -0.33588954297657     -0.84038586270967      1.29340535661602
  C          -1.14963770191698     -1.92873013672863     -1.00360012747617
  C          -0.23074542317456      1.32875813897086      0.07666483365203
  C          -0.40367335090730      1.43203769864467     -1.31312319003745
  C           0.66715939709586      0.98444446876694     -2.10243588906591
  O           0.73306920579644     -0.71434565197870     -1.81012073487942
  C          -1.36328520280050      1.70715917860782      0.99029326370089
  H           0.72180344227674      1.70125081773924      0.44732579851245
  H          -1.40539229322570      1.38484807672666     -1.71881852095875
  H           1.66748543960153      1.22173870325315     -1.75996881360417
  H           0.55129679898383      0.98386453384713     -3.17698286158389
  C           2.07830690557037     -1.04863682681051      1.91022939971300
  H           1.41488992211941     -1.05248170857666      2.78151572443252
  H           3.05375121010523     -0.66010439683458      2.19409157290999
  H           2.18398388178014     -2.07065772949136      1.53290031255909
  F          -1.65109464465138     -2.44044875545555      0.14261085791344
  F          -2.12318788095820     -1.14224016088890     -1.53539228431071
  H          -0.97734340215210     -2.75560114417145     -1.70945310063208
  Cl         -0.92129370890888      1.45470269994857      2.69348616186317
  Cl         -1.69574470836932      3.45460747703319      0.77898023467141
  Cl         -2.85335290662758      0.80838795808226      0.65439518525996
