24
Coordinates from ORCA-job NEB_product E -52.907224914450
  C           1.20852010036641      1.58374532880998      0.45550353642743
  C           1.53539244051399      0.74558006088612     -0.78679747006874
  O           2.36107821792496      1.80740840476613      1.21777105005671
  H           0.43142263572681      1.07933880069127      1.05006711699375
  C           0.43676192557003     -0.22723238670714     -1.28142604896461
  C           0.70172218037347      2.95856616270187     -0.04630685537255
  C          -0.10257499479723      2.81691180794834     -1.31194119347923
  C           0.34224727087348      3.18822661835561     -2.49718854743161
  O           2.59085239527140      0.77556540745681     -1.34749063607334
  C          -0.11584104149817      3.68494630313980      1.02098444045157
  H           1.60078505640658      3.55339761948380     -0.24113266706297
  H          -1.08363912915001      2.37933449078632     -1.19451352910492
  H           1.31832598666631      3.62498593991512     -2.62891436234955
  H          -0.24992161756314      3.05480881845812     -3.38501678353181
  C           2.79382632901270      0.69007326903427      1.95904772258215
  H           2.00108895370503      0.32813290400711      2.62432029807488
  H           3.63703735706702      1.03564753526592      2.55213369966614
  H           3.11920039990046     -0.12734482359449      1.30676062711806
  F          -0.71415817633026     -0.12468032653071     -0.58220136220174
  F           0.13437729141516      0.02059831588409     -2.57213872898405
  H           0.78985486585086     -1.27063971045407     -1.20877805963253
  Cl          0.83360492471582      3.99524678974573      2.48343384823006
  Cl         -0.65191792667079      5.24859653597689      0.35843681283988
  Cl         -1.56054544535088      2.75538613397310      1.47988709181701
