24
Coordinates from ORCA-job NEB_reactant E -52.909732888750
  C           1.67004118371792      0.40432440157828      0.16355857953116
  C           1.28243967422758      0.70434100333401     -1.08219751705995
  O           2.48338090193322      1.20433911298387      0.88147661782692
  H           1.34601176908613     -0.51970239386450      0.62715557862710
  C           0.32292032283041     -0.20990346419463     -1.80178268427668
  C           0.38036161409510      3.50906367442410     -0.00786808965483
  C          -0.02585914880152      3.38868699808328     -1.26250466362857
  C           0.79143196502756      2.67644026032002     -2.29969432900367
  O           1.76351896382775      1.80606786082967     -1.74592629088660
  C          -0.37947917114907      4.12704936397745      1.10275617817975
  H           1.34316389633489      3.11626240968177      0.29350936931288
  H          -0.97355434400088      3.78069538757361     -1.59928085710856
  H           1.36868323289561      3.40133244424986     -2.88306011282216
  H           0.12318355115590      2.14652855806666     -2.98910679822203
  C           2.74099411822305      0.79246892985500      2.20721328488096
  H           3.43087413673891      1.52416735118821      2.62238926350185
  H           3.20239748182153     -0.19902998266844      2.23275492599974
  H           1.82167021850411      0.78203028485755      2.80061862649280
  F          -0.96197124882451      0.25402058179208     -1.73385546013486
  F           0.60466978680106     -0.29863397843115     -3.12194559840843
  H           0.31831442232802     -1.22667596460738     -1.38374694601423
  Cl         -0.71087751189836      2.86805930492511      2.33497581421109
  Cl          0.60652020332933      5.39925288059314      1.87897201563866
  Cl         -1.92443601820373      4.83731497545243      0.61768909301765
