24
Coordinates from ORCA-job NEB E -44.992603324570
  C           0.04550054330663     -0.71047048926506     -0.10974204792583
  C          -1.24887683640759     -0.41328821496858     -0.59524670545359
  C           0.14622499454209     -1.02242876120265      1.37475755767465
  H           0.62237699789543     -1.40376379343196     -0.72002964633681
  C          -1.54016544734838     -0.67888624092139     -2.06723269712740
  C           0.89105101545647      0.96052399404966     -0.42346250395098
  C           0.06962717456616      1.83396848554914      0.31853294496451
  C          -1.26845761813397      2.01092934700667     -0.07716526019960
  O          -1.97356448530740      0.46588360072372      0.00005439517833
  O           2.19288274528101      0.84848238616120     -0.01846606831572
  H           0.77470516140662      0.98862292216183     -1.50604390578694
  H           0.36035106250965      2.02959062953434      1.33920404311162
  H          -1.46060553585245      2.20362363785411     -1.12662060155834
  H          -1.90911106560143      2.57627633598388      0.58513488197972
  C           1.55148550234062     -1.33269679556462      1.87360539424026
  H          -0.47596615898301     -1.90901040222349      1.53318832917176
  H          -0.29455277964243     -0.21164629812969      1.95303965623393
  H           2.00770440042137     -2.11393340214837      1.26871727920332
  H           1.49941619243515     -1.68659697748993      2.90028259271493
  H           2.18465808987013     -0.45204765571236      1.84787721779693
  F          -2.84473130927759     -0.70053320823789     -2.33922754701659
  F          -1.00023266586866      0.25802169609641     -2.89346915145461
  F          -1.02613073878040     -1.85085798353839     -2.47919138639604
  H           2.69641076117201      0.31023718771345     -0.63849677074753
