23
Coordinates from ORCA-job NEB E -60.881880852320
  C          -0.18276334783838      1.82017006495396      0.31326718940814
  C          -0.70073304782602      0.94437119678608      1.31922777254431
  C          -0.65889174079559      1.78458039727824     -1.03415519410280
  H           0.25125672983898      2.75030128143914      0.65222781119849
  C          -1.98167365223426      1.21214575192840      2.07660014807482
  C           1.30428983776062     -1.42398629331741     -1.09007192405514
  C           0.95437061580465     -1.54852881064948      0.17808934540911
  C           1.18439938196646     -0.47254422698056      1.19754302046843
  O          -0.07035393051349     -0.08933675001571      1.77341379728587
  C           1.05796219207939     -2.48154396693725     -2.12310315986675
  H           1.80457836379916     -0.54699206216760     -1.47412270203851
  H           0.44738991736373     -2.43381042016544      0.53490650317907
  H           1.65210305393547      0.40415348096039      0.73763117715178
  H           1.77670175745647     -0.85593698650012      2.03305853334905
  Cl         -1.53222083676991      0.28122036330794     -1.37214048098295
  Cl         -1.80401933640205      3.19156429226321     -1.54400764249164
  Cl          0.68981615808476      1.93589141459054     -2.23085056529163
  Cl         -2.58295083271539     -0.21638252141634      2.93708000732851
  Cl         -1.49632788308016      2.45606423352469      3.29129163711854
  Cl         -3.24779695643692      1.87392481220361      1.05177212357909
  F           2.21943992467705     -2.83305136607823     -2.73075634093475
  F           0.55123159767062     -3.61532676501068     -1.58776734169605
  H           0.36419203417481     -2.13694711999739     -2.90913371463500
