23
Coordinates from ORCA-job NEB_product E -60.975606152150
  C           2.07762228093504     -2.25625138869020     -0.37161087955249
  C           0.64219416691535     -2.63433635894663      0.00685312359863
  C           1.98934968110957     -0.87946733910247     -1.04368192181630
  H           2.70188402359474     -2.15838284324157      0.52040806666337
  C           0.24631966352814     -2.56079827818994      1.49731730391882
  C           2.67590678445876     -3.32937044007446     -1.31042250420369
  C           4.01987814555417     -2.92925427926982     -1.85442294407969
  C           4.28575173215889     -2.83503241137729     -3.14272049557084
  O          -0.16429747341968     -2.97675448385828     -0.80218888297709
  C           2.84800651494173     -4.65363253169244     -0.55471643950528
  H           1.97240460635808     -3.51933108710366     -2.12692643736937
  H           4.78374499211339     -2.75839308993937     -1.10904481865065
  H           3.53286907540610     -3.00534347980727     -3.89394930553216
  H           5.26590939810919     -2.56850276359758     -3.49640274907429
  Cl          1.35118321695207     -0.98137536802058     -2.68948199343389
  Cl          0.88509162646788      0.16405025654504     -0.09862610137240
  Cl          3.57328607094559     -0.08437912486949     -1.08639391127756
  Cl          0.12101040337873     -4.24514062329308      2.06285651374986
  Cl          1.37931703912690     -1.69598820443276      2.53980857959182
  Cl         -1.34659719265321     -1.78483569995374      1.60652642921944
  F           3.44031455493495     -4.46200394065716      0.64751950773901
  F           1.65896302483609     -5.24268625718437     -0.30183987843791
  H           3.46078766424754     -5.37089026324290     -1.12256026162733
