20
Coordinates from ORCA-job NEB_product E -33.396067463360
  C           2.23072636503750      2.49983166550780      0.42150060852580
  C           0.95490630734061      2.98930158382626     -0.26452211061358
  Cl          1.91673201431514      0.75802180636097      0.74222435422385
  H           3.08355850566579      2.53358188497954     -0.26102784471655
  C           0.82966793323736      2.56782540022158     -1.69948846801236
  C           2.53942754800272      3.20895583330688      1.74003750100262
  C           3.67698752306138      2.53221551362517      2.45081035868582
  C           3.59293083648965      2.03564968583583      3.66895058567508
  O           0.13332284313751      3.64346642180989      0.31853638491727
  C           2.89803086328929      4.67292837063359      1.45361030654717
  H           1.64437913654935      3.19313666077337      2.36953268349886
  H           4.60273236900700      2.48175634777938      1.89212678659059
  H           2.67973328007986      2.08293286065912      4.23844056339424
  H           4.43264739130340      1.56396657133650      4.14898568025511
  H           1.53697251186758      3.14199995079318     -2.29647300630936
  H          -0.17703426548359      2.76197835768660     -2.05873986899925
  H           1.07055651366010      1.51375589880965     -1.80815000743573
  F           3.16685748246598      5.32685454759050      2.62597289486037
  H           2.06483426249122      5.20075949699039      0.98029725580091
  H           3.80073057848214      4.75018114147380      0.83637534210915
