20
Coordinates from ORCA-job NEB_reactant E -33.386028342260
  C           2.53192806041889      1.29321187693054     -0.20916294291069
  C           1.36299535158011      1.80358901939047      0.17404940683944
  Cl          3.96697120367433      1.03295508875804      0.73209301582111
  H           2.66840195498741      0.98835566338885     -1.23232327677903
  C           0.24890938405822      1.93874031094273     -0.83027869736305
  C           2.97237644261381      4.24139075769687      1.61150839826825
  C           2.86040795748730      3.27080929286621      2.50098322322637
  C           1.77362181737715      2.23828528662817      2.51493902971846
  O           0.93246011951979      2.24900167214372      1.37916804045107
  C           4.06110694218083      5.26488354953998      1.60897383248752
  H           2.26762523412809      4.35020825967019      0.79925589663263
  H           3.57573115138042      3.17863121625514      3.30555655438041
  H           1.09556423329732      2.44532298018853      3.35227428213073
  H           2.20489802251532      1.24291677363561      2.67093503372493
  H          -0.08080050211831      2.97480312450640     -0.86788433175560
  H          -0.59755809915076      1.33352936013685     -0.51250022731004
  H           0.56658699783082      1.62354840775442     -1.81747844138107
  F           4.88562165019849      5.15031053802989      2.69894579552544
  H           3.64404589136017      6.27969404613316      1.63333902623039
  H           4.69550618666061      5.15681277540419      0.71950638206273
