18
Coordinates from ORCA-job NEB_reactant E -29.601560368700
  C           1.88358761312826      0.07422626919602      0.08900157144533
  C           1.47611643096854      0.47508829577505      1.28424349220750
  C           1.94134117255766     -1.35951531422074     -0.32220906464377
  H           2.21004280156666      0.80847705317375     -0.63058711875071
  Br          1.44433992269346      2.38472726259242      1.65561924533821
  C          -0.14979869502625     -0.67074649415477      5.37349454621694
  C          -0.20572912848067     -1.04784522217357      4.10268308243341
  C          -0.09233781431870     -0.08958005367340      2.96636895474063
  O           1.16000409979040     -0.31859388533541      2.30975913872603
  O          -0.23596021996263     -1.48192910271239      6.44454518603901
  H          -0.05048617781189      0.36386010647587      5.66985311806344
  H          -0.29230782519493     -2.09288165071094      3.83808972896935
  H          -0.13233104467743      0.94312795449330      3.33299727712284
  H          -0.90468438970501     -0.24285656504632      2.24163759412203
  H           1.54973242466406     -2.00059282286677      0.46249227182389
  H           2.97216428156573     -1.64567090133174     -0.52793701430518
  H           1.36508971320365     -1.50813304470706     -1.23473485254061
  H          -0.30828316496091     -2.40276188477328      6.16088284299166
