18
Coordinates from ORCA-job NEB_product E -29.612953339840
  C           1.70483170059666     -0.41146627496933      1.75014074984572
  C           1.02150117217258      0.67698210555516      0.99658773488172
  C           1.49351122515618     -1.75018784859894      1.04749786955276
  H           2.77580421779400     -0.18790708775383      1.80917388009518
  Br          1.55172711360408      2.47270102406298      1.63782751512392
  C           1.18922323500405     -0.43746728998558      3.21635013949875
  C          -0.29260720382333     -0.69713889095056      3.26453100089928
  C          -1.19349268136523      0.24561070380125      3.46464899883419
  O           0.24372247613897      0.61634975973512      0.11383588248123
  O           1.92957287023015     -1.44187459168432      3.87528212513753
  H           1.40266669286157      0.54318067020633      3.67202987110008
  H          -0.57900539308258     -1.73067127778075      3.12912346599409
  H          -0.91605894193074      1.27749376344575      3.60941469957491
  H          -2.24727570591154      0.02849478978939      3.48371646395862
  H           0.43693929739311     -1.92345950153903      0.86072449497730
  H           1.88529380358674     -2.54289380860485      1.67815914450188
  H           2.01737510114150     -1.76075945065088      0.09496232773286
  H           1.61617102043384     -1.51248679407791      4.78269363580999
