24
Coordinates from ORCA-job P E -34.791184643720
  C          -1.65207084774297      0.21686485131283     -2.13821176940022
  C          -0.03756487140398     -1.70954071865900     -0.97956181599634
  C          -1.44579213037937     -2.06856767291438     -1.33490470418602
  C          -2.21599635814672     -1.15472649649788     -1.90243926114254
  C          -0.98982964506024      0.67967139184181     -0.82757304115690
  C           0.00736407259479     -0.34496264168807     -0.24931735599543
  H          -1.79407435493596     -3.06559734205137     -1.11859510000197
  H          -3.24588529549540     -1.32897088048122     -2.16257307287386
  N          -2.69691008399709      1.14950064584108     -2.51826821338361
  H           0.41904590978509     -2.46994875775607     -0.34686563902219
  H          -0.87475508376803      0.14469017760908     -2.93527931507834
  H           0.55492458127356     -1.65164299169609     -1.90086953765745
  H          -1.79618646685226      0.84102330875549     -0.11112872224467
  H          -0.22396528880540     -0.51883960565436      0.80395618787183
  H          -0.49857644787770      1.64547236900098     -0.98083665893432
  C           1.43753827446797      0.17366417481767     -0.30338682039470
  C          -3.10492044451533      1.03128790043626     -3.90266450325863
  H          -2.39361314021262      2.10136701249511     -2.33561388981172
  H          -3.51190632107796      0.03551007681817     -4.07326565081314
  H          -2.27897939002681      1.18895086403889     -4.61493880471083
  H          -3.88469176767567      1.76315067978482     -4.10264591403678
  O           2.17914280192012      0.18825650335039      0.63459420485931
  O           1.83796441843341      0.61037921152369     -1.51075407372270
  H           1.13190787949858      0.53614793977217     -2.16848652890879
