21
Coordinates from ORCA-job NEB E -37.586433499710
  C           0.15117346395731     -0.70567894472238     -0.56467153160142
  C           0.25815279247220      0.22415863792056     -1.59416961462886
  O           1.26173993422584     -1.10487403792052      0.14543799845906
  H          -0.60807276483266     -1.47731759241626     -0.70137870146687
  F          -0.86397090387197      0.24364402462154     -2.40608893598942
  C          -0.57283991555530      0.59319724779876      0.90278013519943
  C          -0.62048603586944      1.84524055056922      0.31359454411412
  C           0.56142914871443      2.35801696261648     -0.24784714441940
  O           0.92358106131052      1.28207267818293     -1.58006246385935
  C          -1.82488809360541     -0.06249980209640      1.41513290266613
  H           0.30906467866776      0.34376055617422      1.48003593031287
  H          -1.56873727851575      2.18911045753734     -0.07952459340803
  H           1.48603169990551      2.18492660590806      0.28809345839789
  H           0.51762970316634      3.30065642673861     -0.77402534053436
  C           1.72383084133670     -2.39248810119758     -0.20851073482997
  H           2.54421703543693     -2.61644247197320      0.46999530385912
  H           2.08477167302307     -2.41276363874897     -1.24145865398421
  H           0.93285279103217     -3.14187303957213     -0.09137553022901
  F          -2.86815537257043      0.06932738724727      0.53611720407069
  H          -2.14308854194596      0.41454262073888      2.35211892323992
  H          -1.68423591648187     -1.13471652740643      1.58580684463166
