21
Coordinates from ORCA-job NEB_product E -37.643916244510
  C           0.29995302886104      0.28762005770754      1.47118284810543
  C           1.12255734515945      0.91911918192817      0.37281141649058
  O           1.07188168143926     -0.58875564086543      2.25005854268126
  H          -0.55936609319445     -0.23090010308971      1.01301073167018
  F           0.32176014621852      1.32707479372680     -0.65743132147619
  C          -0.21759181919552      1.40921004759493      2.40820843276770
  C          -0.92061934806876      2.49031719221226      1.63953434042648
  C          -0.50723683474931      3.74149107365820      1.58738077152389
  O           2.28508292404807      1.09054075308280      0.30300339872181
  C          -1.15393405255509      0.78662061065437      3.44813224103705
  H           0.64816597446370      1.81312399831582      2.94071763404556
  H          -1.81963477293422      2.17781290179553      1.12662428198338
  H           0.38832472263532      4.06657716245006      2.09167240645803
  H          -1.04336865423501      4.49117242690196      1.03256847440165
  C           1.42389475207959     -1.78849697497578      1.59613760733915
  H           1.95642577591578     -2.38436026642870      2.33377873659414
  H           2.07754742326384     -1.60549802563156      0.73801167449775
  H           0.53104223388969     -2.32988707977600      1.26190327505003
  F          -2.24968662418108      0.22891603976123      2.83825082046135
  H          -1.52729237221378      1.54988251912217      4.13703546048763
  H          -0.64720543664704     -0.01468066814466      3.99250822673312
