19
Coordinates from ORCA-job NEB E -28.665193656620
  C           0.24048964522651      1.01831924223130      0.30727350824184
  C          -0.92052049274824      0.33303420274879      0.69099068039159
  C           0.24873709285625      1.71354949835696     -1.02818958030918
  H           0.75868214100462      1.56043209823820      1.09335839087240
  N          -1.13556821398062      0.02442211392479      2.02659941463157
  C           1.30966109209866     -0.61740131488595      0.03904012145482
  C           0.61435032170856     -1.32522551314441     -0.93062597237171
  C          -0.71522849880425     -1.71798504886741     -0.56722632718150
  O          -1.54945148078430     -0.40258713804299     -0.18655284985128
  I           3.30516265839786     -0.00413714454068     -0.38346473862663
  H           1.25994768960055     -0.95778368463698      1.06577336144631
  H           0.83508260057809     -1.15866193678136     -1.97356007950840
  H          -0.79244498153638     -2.28342590850506      0.36080880341646
  H          -1.31018001582857     -2.15469400109108     -1.36115948602048
  H          -0.33256213402923      1.14733603529043     -1.75151079837811
  H           1.26053659806564      1.84673380560749     -1.40339822971196
  H          -0.20091982214033      2.70128442915975     -0.92479063318030
  H          -2.00980678462839     -0.43902139608134      2.22002507944045
  H          -0.86596741505642      0.71581166101955      2.70660933524411
