19
Coordinates from ORCA-job NEB_reactant E -28.685630953590
  C           1.54396267159797      0.08254215455519     -0.10941206687630
  C           1.73095446416902     -1.04861065572972      0.56964087164664
  C           0.99951311696875      0.15512901088711     -1.49943373462457
  H           1.79535876608703      1.01853403934369      0.36605295819566
  N           2.30530600881793     -1.11554671767939      1.84253473187545
  C           3.98575746778816     -4.58513492752565      0.19140308326951
  C           3.59609592794303     -3.33048522714801      0.10025968203154
  C           2.41943631084435     -2.90047594110370     -0.72825918043929
  O           1.40719217130370     -2.29061244692965      0.05497703587251
  I           5.62624615794146     -5.19766247882461      1.35998889519027
  H           3.51379918199752     -5.39869494660678     -0.33311707149370
  H           4.08507950061922     -2.54014300593990      0.65190012202945
  H           1.93883808178508     -3.76042999289543     -1.20188615718550
  H           2.76514853738521     -2.20386311299001     -1.50563191066091
  H           0.61377811291448     -0.81249402892649     -1.81013544208438
  H           1.77057825733238      0.47289805934064     -2.20376250464876
  H           0.19058566538897      0.88321507008433     -1.54662995100880
  H           2.00040343384800     -1.92393837783931      2.36712802675017
  H           2.23486616526774     -0.26062647407229      2.37398261216101
