15
Coordinates from ORCA-job NEB E -30.862889610780
  C           1.07668658341183      0.45537535644158     -0.31328558546476
  C           0.16838427246028      1.01634763541043      0.69164348133115
  Cl          2.46788340784000     -0.54312647376055      0.38272735917377
  H           1.58182963726544      1.20962539862889     -0.91408714068838
  C          -0.22596029852656      2.35177222491950      0.60404556106835
  C           0.19794885233504     -0.53208259442729     -1.15141788979047
  C          -0.90072127978709     -1.00814907964928     -0.28138763704284
  C          -0.56021462507024     -1.24260462832593      1.13430832867097
  O          -0.85488981858282      0.12973466716953      0.97418299477643
  Br         -0.54644858743871      0.38788598247639     -2.73244444766211
  H           0.81383576959696     -1.34140663944275     -1.54037367761612
  H          -1.90297447014435     -1.14383313612891     -0.64812007476297
  H           0.46410789476339     -1.48764443890445      1.39471358958700
  H          -1.30907071281059     -1.72872127215160      1.75205357790502
  N          -0.47039662531255      3.47682699774445      0.64744156051496
