15
Coordinates from ORCA-job NEB_product E -30.911693032560
  C           1.60514875744196     -1.70183821614842     -0.18672486162972
  C           1.55880813265043     -1.34410279336429      1.29341622704013
  Cl          3.37176396566152     -1.57164902125732     -0.53778439745607
  H           1.10112251088013     -0.95123623648044     -0.80197957640314
  C           1.79770614916895      0.07307399240956      1.50454356335480
  C           1.07577228990063     -3.09950664360191     -0.44811896198561
  C          -0.37114683832449     -3.20136498017853     -0.09921778549079
  C          -0.85822879476347     -4.12813377002190      0.70475614352033
  O           1.39697396802762     -2.13298092202906      2.18277388903705
  Br          1.29983757206008     -3.51331569637959     -2.37074394223757
  H           1.66955710369727     -3.84302113655646      0.08628980165553
  H          -1.01458353112303     -2.47121811921848     -0.57196496536050
  H          -0.22685782594958     -4.86416971865963      1.17332856619217
  H          -1.90834706301355     -4.17924187876766      0.93187364923017
  N           1.96667360368554      1.19460514025414      1.65105265053321
