23
Coordinates from ORCA-job NEB E -49.643583801420
  C          -0.04829393138479      0.76857775889136     -0.60754187427839
  C           0.88659575094469     -0.22943834818157     -1.05794874486197
  C           0.41270994331056      2.14698463490622     -0.26945405129717
  H          -0.84854575174852      0.86434211367087     -1.34306516277546
  C           2.32051672599599     -0.29334937123062     -0.64257089364182
  C          -1.20282471262482     -0.17182612423454      0.61130988374201
  C          -1.17826424885807     -1.52090037119895      0.15468081208117
  C          -1.19165124670692     -1.78078853177266     -1.21380719784823
  O           0.39955623661100     -1.21014945983880     -1.69504908592922
  C          -0.98286652337249     -0.08208874694708      2.10780241513001
  H          -2.08358809823698      0.41361133366350      0.34806045644347
  H          -0.63936573747409     -2.23491332579718      0.76611674594742
  H          -1.80796290514183     -1.16798005893350     -1.86056002398349
  H          -1.10643988749775     -2.80637753904860     -1.53972684752943
  Br         -1.12661706453616      3.34728181318004     -0.04539336062516
  Br          1.62361508514834      2.34536391736563      1.22817098458486
  Br          1.38978058821428      2.89305867225526     -1.87134340382313
  H           2.77769174832004     -1.15862188619740     -1.11559183721873
  H           2.42139388743472     -0.39049521317549      0.43748273322037
  H           2.85684619427392      0.60138886471710     -0.95311054172322
  Br         -1.24800918545723      1.66850715219881      2.90882628898471
  Br         -2.36705228510368     -1.22645037442633      2.96976719640895
  Br          0.74277541788978     -0.77573690986607      2.68294550899247
