23
Coordinates from ORCA-job NEB_product E -49.689096666780
  C           1.00587816237226     -1.56170504923785      0.95431280858013
  C           2.03802338842256     -2.71173777389305      0.72249870264617
  C           1.54564054001689     -0.15008613570466      1.15767667895713
  H           0.51083473006906     -1.51338566867821     -0.03094148877169
  C           3.50765943859217     -2.51205356153149      0.92151683939951
  C          -0.18450576530277     -2.01508699006294      1.86416971486334
  C          -0.80364477121512     -3.24940147079737      1.24504279425730
  C          -1.81473289360813     -3.18717177210746      0.39946058804594
  O           1.59790584096476     -3.74990440894929      0.30720826082879
  C           0.04810258874485     -2.26591832356830      3.35389644722794
  H          -0.94038069438681     -1.21856945745886      1.81185576579121
  H          -0.36880633773803     -4.19872440651196      1.51968624937214
  H          -2.26149280322473     -2.25148798122354      0.10250520614169
  H          -2.23625450761260     -4.07773491906252     -0.02937918790037
  Br          0.08116261185478      1.15814986713300      1.37888063630036
  Br          2.80674426696119      0.12950562151515      2.61301666538110
  Br          2.45273883388505      0.42468243146920     -0.50826913098755
  H           4.00692766198871     -3.40449334322616      0.54962587016094
  H           3.75824760177859     -2.39545215659041      1.97262340640584
  H           3.88432486357820     -1.64868658537930      0.38054681004516
  Br          0.08322033715733     -0.62460175042915      4.42389395490589
  Br         -1.48915869354053     -3.27544158730305      4.07472363243983
  Br          1.64196560024230     -3.30689457840175      3.74424877590921
