21
Coordinates from ORCA-job NEB E -46.048722622400
  C           0.74569815814391     -0.98438751090309      0.03266404153278
  C          -0.50597837278290     -1.21331797984192      0.66887549574977
  O           1.84636559931230     -0.80278799460955      0.78735538125350
  H           0.98134246746955     -1.54511003951440     -0.86732678538750
  C          -1.63500463381412     -1.85675032295787     -0.11648605055128
  C           0.31245449678687      0.77969627469115     -0.64339673760448
  C           0.01968212464584      1.48678233088821      0.53338900220227
  C          -1.13102650314067      1.15101408875482      1.26064055051739
  O          -0.79405022898906     -0.50750014479116      1.70199806516110
  C           1.53638415157728      1.19588789315181     -1.42999916831551
  H          -0.50385388573716      0.52646463846371     -1.31038187528054
  H           0.84269658818365      1.96141836209055      1.05098779612517
  H          -2.04839474936700      0.97148412202980      0.71543890066523
  H          -1.27471074971463      1.60450825217450      2.23023157820628
  H           1.58770780683091     -0.47852759121970      1.66428611964727
  F          -2.24252994999517     -0.97438194587995     -0.97043011205787
  F          -1.17570689950666     -2.85868136886523     -0.89664307510846
  H          -2.41541943855237     -2.25307168035316      0.54937819355662
  F           2.60024887133105      1.44876657908231     -0.63827624084815
  F           1.91702069608740      0.23763640972014     -2.30585608745343
  H           1.33707445123098      2.11085762788905     -2.01644899201018
