21
Coordinates from ORCA-job NEB_reactant E -46.073464178280
  C           2.55634929369097      0.61513775911098     -1.05630210534796
  C           1.35086472535406      0.99592175880750     -1.48991153033484
  O           3.39941640773528      1.38569601222584     -0.30620114067111
  H           2.89676520726939     -0.38210083391149     -1.29874415738695
  C           0.51835758355758      0.03117615038219     -2.29724819479220
  C           2.70819290349604      3.36509767217682     -2.96166972209122
  C           2.53479668120030      3.74446739946885     -1.70605835136479
  C           1.40964131203924      3.28619904765005     -0.83106177428905
  O           0.69496715541482      2.18199609335611     -1.33952929484648
  C           3.87683357286719      3.78399278850115     -3.79705450127490
  H           2.03324392993327      2.68749916402131     -3.46310085176080
  H           3.22895221626661      4.42532649427068     -1.23474321567122
  H           0.66120282922584      4.08129591361525     -0.74317979467589
  H           1.80161100727915      3.06548258049029      0.16834612692156
  H           4.29167369806956      1.02611622557447     -0.34191864483398
  F          -0.72181646442310     -0.11490050727265     -1.78142926448786
  F           0.34624595921097      0.49774030330427     -3.56235072368567
  H           0.97397728432063     -0.96738595040574     -2.37143559459305
  F           4.65286932917531      4.70735706593157     -3.18147710663730
  F           4.69221811397187      2.71492333456783     -4.03512017619294
  H           3.58403725434501      4.19026152813474     -4.77910998198337
