21
Coordinates from ORCA-job NEB_product E -46.075296576690
  C           2.25514850699189      1.50965222242715     -2.12037628707954
  C           0.98366178326399      1.07673673464270     -2.83688396998927
  O           2.22369981148938      0.90426287401714     -0.85187632606778
  H           3.09706605491062      1.10995301574801     -2.71585002107093
  C           0.66793486180674     -0.41072608528749     -2.60103528741248
  C           2.39186425788200      3.04725579151491     -2.02953802059669
  C           3.56284178864094      3.39108094825797     -1.14779504257366
  C           3.44759853514774      3.95075873278560      0.04135877423822
  O           0.27882495804826      1.78815429235080     -3.48986267296161
  C           2.60323096221246      3.65370316160344     -3.42087207852423
  H           1.46953781642918      3.46584725012844     -1.61630251513008
  H           4.53218931409463      3.14428187017675     -1.56084032433002
  H           2.48802149530304      4.21055149725260      0.45701482149679
  H           4.30952615246073      4.18106804212836      0.64299154087349
  H           3.01051701850450      1.17087127866947     -0.35830625993152
  F          -0.24892206578209     -0.85797691325456     -3.47805555379945
  F           1.77511688728657     -1.16863407127362     -2.76159647757137
  H           0.28938862190877     -0.56289504257166     -1.57650111440990
  F           2.83204951711854      4.98276022961054     -3.31928780402754
  F           3.70680803002657      3.12411474523280     -4.00799942843766
  H           1.75319569225557      3.50537942584068     -4.10038595269476
