33
Coordinates from ORCA-job P E -44.286982535710
  C          -1.67513703945596      0.19490868771246     -1.93884884314615
  C          -0.05278322542385     -1.72425229222692     -0.82682187983284
  C          -1.52846669691333     -1.97053521717249     -0.85887159479447
  C          -2.31794092701436     -1.06378234782293     -1.41236091892577
  C          -0.79101883887623      0.73991212049795     -0.79545551438157
  C           0.27299899354792     -0.28131660452730     -0.35703386002681
  H          -1.90349272067573     -2.89362991567657     -0.44500177484564
  H          -3.38801706373620     -1.17898534587319     -1.47658697787189
  N          -2.56187544913403      1.21639590525051     -2.46763846221216
  H           0.45545787565432     -2.43657465185706     -0.17845903483284
  H          -1.00830703797900     -0.08632926703899     -2.76498597811632
  H           0.34380548455811     -1.86539520714940     -1.83993422572241
  H          -1.43073166079886      0.94893043627585      0.06130718451464
  H           0.33596737409319     -0.29022008198498      0.73389781596974
  H          -0.33322347368906      1.68465842341674     -1.09821028575046
  C           1.67262940976194      0.03934369217935     -0.86442807060837
  C          -3.32152468949972      0.86231476722013     -3.67650263618547
  C          -3.46373823328946      2.12567273583709     -4.53253520547464
  C          -2.68789531734008     -0.22929815235570     -4.53784589080428
  C          -3.42196765474505      1.80636813760137     -1.45783887593086
  H          -4.32956415780166      0.51162465966710     -3.39181697028886
  H          -2.48012644743707      2.46358140554967     -4.84789122100157
  H          -3.93701181436400      2.93208680408806     -3.98053465497747
  H          -4.06418465469351      1.91636842493193     -5.41408867969720
  H          -1.70335942647671      0.07260609577524     -4.88813975558527
  H          -3.31855299301978     -0.38847874429474     -5.40958476146802
  H          -2.60829596003068     -1.17445295727522     -4.00639478880457
  H          -2.82971512725963      2.43183436428705     -0.79183070200031
  H          -3.95711300782439      1.05726031689534     -0.85721038309917
  H          -4.16015174616557      2.44375891990590     -1.93670149126242
  O           2.66131041395183     -0.13007439884388     -0.21110425387891
  O           1.74865323674579      0.48564236886357     -2.12826925381254
  H           0.87346257533079      0.60997691814406     -2.52293805514511
