33
Coordinates from ORCA-job TS E -44.208000553710
  C           0.43409466772261     -0.31396391222413     -0.52479226008779
  C           2.29756758494479     -1.91875244855914      1.00914577118304
  C           1.17604651308183     -2.42859187742824      0.42264000554950
  C           0.26293785058579     -1.66643169085681     -0.32006987553243
  C           0.30205088141607      0.18552312523559      1.74041360731206
  C           1.21881004554040     -0.54842369524164      2.44308935450198
  H           0.86852040821083     -3.43139922159224      0.68685896061308
  H          -0.66309170668716     -2.14378309984438     -0.60239426475387
  N          -0.43579251786628      0.52540949677708     -1.14565789023719
  H           2.90150633170490     -2.54102862916412      1.64758012043108
  H           1.44051617402789      0.07616251667085     -0.47757449200345
  H           2.80867383381586     -1.06586605563295      0.59769316304725
  H          -0.73202545621284     -0.10807579237999      1.75219658485820
  H           0.88643483631893     -1.40859973626268      3.00300185197437
  H           0.48495412829615      1.20825021540143      1.44899849393040
  C           2.52943770239511     -0.03350405020395      2.88184934745515
  C          -1.85871912222466      0.24019850131776     -1.22112361664329
  C          -2.70899208233840      1.37978904762975     -0.65563651075346
  C          -2.26462098012328     -0.08868912084906     -2.66012023529388
  C           0.00755965868698      1.84952694165112     -1.50460206170336
  H          -2.03699647888573     -0.64205793094723     -0.60028298283843
  H          -2.66473884541560      2.26356839323972     -1.28624570265594
  H          -2.37729441238958      1.64388018170298      0.34584573109657
  H          -3.74538194586326      1.05785552984768     -0.59704610990189
  H          -2.14084809355913      0.77699171902731     -3.30622090902096
  H          -3.30674233730691     -0.39430313680457     -2.69405604477033
  H          -1.64969909270685     -0.89812278036598     -3.04548092168759
  H           1.07056855149615      1.83157588256643     -1.74109167692667
  H          -0.15873123193862      2.57825583597761     -0.70202385508921
  H          -0.52618212963396      2.18853386135747     -2.39115331064008
  O           3.14949224695600     -0.49637443160593      3.80176237704015
  O           3.02233187620698      1.02487329419068      2.19418468761287
  H           2.40835314174498      1.29757306736956      1.50031266393411
