23
Coordinates from ORCA-job NEB_reactant E -39.630181148840
  C           1.45821323992745      0.35282396118648     -0.08249800793835
  C           1.19590538964387     -0.29307672066246     -1.21920214631278
  O           2.09622278126741      1.55926569446632     -0.04958418391602
  H           1.15514833979209     -0.06427074997770      0.86913813671766
  C           0.41586095452289     -1.57677697234414     -1.24820063655298
  C           0.05659181394741      2.48306298543008     -2.37476460566424
  C          -0.09119051778093      1.55577310760490     -3.31444337741714
  C           0.80388414160282      0.36993701574018     -3.47036157220067
  O           1.71188096827523      0.18426645665587     -2.41473673278788
  N          -0.84268960415791      3.58891248512560     -2.27915653337860
  H           0.84571371181335      2.48405302072480     -1.63697433217472
  H          -0.90090212279144      1.64290928788830     -4.02847804478710
  H           1.42275026368418      0.51687324302797     -4.36439563809732
  H           0.18789899153886     -0.52507068286138     -3.64012910031699
  C           2.52123076566199      1.98538003176262      1.22235192419078
  H           2.92326140757930      2.98801002367765      1.08997210037405
  H           3.30251975749378      1.32975667518978      1.62060147411552
  H           1.68568075825443      2.02008906107899      1.92976651966915
  H           0.88792538064245     -2.28402493125045     -1.92824350722184
  H          -0.61099413784147     -1.41142641171744     -1.57705427052893
  H           0.38449545150162     -2.01246192953084     -0.25488543835053
  O          -1.76417990177620      3.65790599670233     -3.06715111752883
  O          -0.62462783280117      4.39528935208254     -1.39937090989226
