23
Coordinates from ORCA-job NEB_reactant E -65.198364025380
  C           1.43744408882136     -0.16275483039173      0.02290692909290
  C           1.46056429344050     -1.00772159162416      1.06158352289247
  C           1.97488253312001     -0.32803685922200     -1.35825609159773
  H           0.95927424532125      0.79419415420858      0.15559019203971
  C           0.86416968162189     -0.58429620617135      2.39775118065206
  C           3.18336498209412     -5.35137087914202      0.16538224743015
  C           3.14679607113440     -4.20798652698240      0.83038408939901
  C           2.71033016518925     -2.91266590909369      0.22349953605222
  O           1.96526367905691     -2.22616129170170      1.22590726650694
  C           3.64097116198071     -6.65444069576468      0.71372273380298
  H           2.88314621322292     -5.40757762211706     -0.87209845030734
  H           3.43831832135571     -4.14630255028672      1.86837702461288
  H           2.09981746530227     -3.08668219341408     -0.66652037223481
  H           3.59880177725327     -2.32791157470139     -0.04621931171089
  F           3.31269395701742     -0.49700313728496     -1.41386579954609
  F           1.45018789596648     -1.37306461439980     -2.03148911292829
  F           1.70900921996301      0.75528610218439     -2.09222036647330
  Cl          2.23295901752367     -0.22360671547487      3.48543808697753
  Cl         -0.17728260418281      0.83280757306031      2.31386451684724
  Cl         -0.07483353068324     -1.92898380295905      3.07882325275085
  Cl          2.32766291994082     -7.85470312842208      0.53835137638125
  Cl          5.04719865321903     -7.22461982392560     -0.23782645983180
  Cl          4.11235979232104     -6.58959787637392      2.41451400919206
