23
Coordinates from ORCA-job NEB E -53.855945745800
  C           0.12292877192266      0.68282218572741     -0.02119815371869
  C          -0.36817377914829     -0.32509288729147      1.01098279084822
  C          -0.90218386383980      1.66342527976232     -0.60214054713954
  H           0.86274296989071      1.32088736852081      0.49109595219239
  C          -1.43704474755228     -0.37881178583345      1.82905916184560
  C           0.94662419094541     -0.08517469743091     -1.10386447761444
  C           2.07434970603026     -0.75399596821048     -0.43576730997089
  C           1.82389665150149     -1.32893799870366      0.88521193634372
  O           0.45782060708723     -1.40905999672048      1.19741372788550
  C           0.09538170946777     -1.12155372325493     -1.88723183935110
  H           1.34582352277692      0.61558655033636     -1.84258044490383
  H           3.02929952260517     -0.86247098737208     -0.91351817837493
  H           2.35700338319764     -0.75727448671131      1.67115493432691
  H           2.19415634139547     -2.36078543904199      0.95957493674630
  Br         -1.23949638582476      3.12425553758040      0.66957624841720
  Br         -0.19637186487681      2.59732991025369     -2.18889362894385
  Br         -2.56208959798295      0.82645773761964     -1.19228104359333
  Br         -4.04869369221022      4.02542074786799      2.85147381271756
  Br         -2.94067508403007      0.70822811211008      2.06835931111330
  Br         -1.50455635759475     -1.87791705159784      3.00535520742627
  F           0.92283239246292     -1.85366424951364     -2.68594833338938
  H          -0.62123073664652     -0.62878183995067     -2.54972806801082
  H          -0.41234365957723     -1.82089231814578     -1.21610599485217
