19
Coordinates from ORCA-job NEB_product E -38.098008783480
  C           1.76896314284013     -1.54412533520045      0.49914979760265
  C           0.86900894732227     -0.38604266189567      0.96499309754901
  C           1.76260509887360     -1.63947206931785     -1.02233534988333
  H           2.80925172837042     -1.33374739433878      0.77033841999118
  N           1.12465141510008      0.00020284652372      2.23317835458286
  C           1.31085230856252     -2.86651592109887      1.15189572154824
  C          -0.18447080980715     -2.98430811939532      1.19732156121623
  C          -0.87427477787825     -3.07084898377179      2.31822314571597
  O           0.01992966410067      0.11847074384290      0.27842531526357
  H           1.72980406581894     -3.70101616302585      0.58241996121512
  H           1.71047202873209     -2.91712476513938      2.16673570902164
  H          -0.68679197691790     -2.98575236363601      0.24165944981188
  H          -0.39667232160186     -3.06939881022561      3.28550702797731
  H          -1.94636108053972     -3.15691347359035      2.31796809767571
  F           2.62728258272035     -2.59370263401425     -1.43368948132475
  F           0.58862204857659     -1.95300555447625     -1.56240405184480
  F           2.17905325658595     -0.50229517432753     -1.59275406152994
  H           0.54840102695896      0.72094710604325      2.63501442204141
  H           1.81077365218232     -0.44725127295590      2.81285286337004
