20
Coordinates from ORCA-job NEB E -52.134364404840
  C           0.70215160736195      0.02974276731337      0.89631298912793
  C          -0.65446943903332      0.41441676876076      1.30029058222822
  F           1.57967923749804      1.06200769136628      1.03346169888843
  H           1.12167181156708     -0.83373148797113      1.41807705853805
  C          -1.54052635186392     -0.52485455283408      1.94957780777710
  C           0.60740543357070     -0.29850282581688     -0.71326625567608
  C           0.11597421286919      0.92550814190824     -1.31174755493505
  C          -1.15066655047368      1.40286360397753     -0.87051899187942
  O          -1.19221811711918      1.43515077304168      0.70175996044829
  C           1.93177695167576     -0.80429710387792     -1.27385361511991
  H          -0.11043180376408     -1.12665756828205     -0.75836168508598
  H           0.82085279853285      1.59820550395181     -1.77268780605233
  H          -1.98704803131216      0.72102439266948     -1.04469315550802
  H          -1.39573152913708      2.42002790072011     -1.15905925765018
  Br         -3.13282917658647      0.30097849655695      2.59496862266397
  Br         -2.29508971080755     -1.93460277520345      0.35071726116146
  Br         -0.76007996502759     -1.66913340356272      3.25680943947995
  Cl          1.63397223343405     -1.32394388059824     -2.95727268890751
  Cl          3.20432491516649      0.42596641959375     -1.28364474116319
  Cl          2.50128147344890     -2.22016886171348     -0.35686966833571
