20
Coordinates from ORCA-job NEB_product E -52.167071159650
  C           2.52778219110808     -1.53916513639828     -1.69969153131417
  C           1.25787312876105     -2.37765626771092     -1.52815784374607
  F           2.24781761583367     -0.31781273081281     -1.13600888612542
  H           3.39583041454639     -1.93937134786499     -1.16442866286230
  C           1.29637349341238     -3.48032491491424     -0.48416987100133
  C           2.83030695963380     -1.32267215153416     -3.19491144723592
  C           3.84719194674303     -0.22588778982318     -3.36281809099741
  C           3.59355113246743      0.89784143229570     -4.00400496173110
  O           0.21996962498499     -2.07883102855032     -2.04277145990563
  C           3.31750422616152     -2.61665052266887     -3.84191197491445
  H           1.89168327801246     -1.02887973025717     -3.68054155973241
  H           4.80822633132314     -0.41073413307560     -2.90633237028248
  H           2.63561397169623      1.09521066348794     -4.45536580485091
  H           4.33751285868451      1.66869716057346     -4.09857226275447
  Br         -0.22197936672745     -4.64357513984101     -0.71461770641503
  Br          2.91428356002727     -4.52556973179143     -0.41294932002100
  Br          1.12288768648638     -2.48295301074428      1.19747481085154
  Cl          3.54621579992750     -2.36219828458679     -5.58351114903255
  Cl          4.85585801608183     -3.17032271740287     -3.13865888175946
  Cl          2.10979713083576     -3.91384461838020     -3.61625102616944
