20
Coordinates from ORCA-job NEB_product E -49.029492847770
  C           1.68297752496415      0.22746172333990     -1.33225909155196
  C           2.30559716398814     -1.13269154932777     -1.49325073200560
  C           2.66560435069335      1.19484288161919     -0.66847330724880
  H           0.79937262396759      0.14888500520437     -0.68838932851905
  N           1.22853736877221     -2.25645479216981     -1.57455044758154
  C           1.17814005182635      0.65767797191057     -2.75157630060053
  C           0.74901204761192      2.10137950888739     -2.83552360056629
  C          -0.51935692093333      2.46305412875657     -2.80421104759142
  O           3.43182413624066     -1.46241332437852     -1.60491709206457
  C           2.17265097578343      0.39810085565881     -3.77415365388493
  H           0.30909053000220      0.02215611899814     -2.96903724829868
  H           1.54141666203727      2.82319000352243     -2.96312346772659
  H          -1.31714032461959      1.74760694452575     -2.68789321573872
  H          -0.80897280718984      3.49549677887639     -2.88706641334449
  Cl          1.81313419768710      2.65979372131448     -0.12575266613976
  Cl          3.33975466658891      0.41161234142273      0.79558047735795
  Cl          3.99569762831991      1.64539406759314     -1.74914465385384
  O           1.65545111417888     -3.37127664526914     -1.63268250532614
  O           0.07308274556703     -1.90346609460989     -1.57721651797426
  N           2.91092626451364      0.19135035412527     -4.62005918734078
