20
Coordinates from ORCA-job NEB_reactant E -49.029822265690
  C           1.67062909567449      0.14182098330257     -0.21869897368564
  C           1.06630761640096     -0.64449162905705     -1.11622856534776
  C           1.40546997249608      1.56339958845115      0.10754626718511
  H           2.44333738782621     -0.33201715318871      0.37484639342537
  N           1.53653273737740     -2.06851478330313     -1.14556967824079
  C           1.78435247457103      1.72136042107170     -4.33203296741856
  C           1.23684207693451      0.61920002503787     -3.82536827528071
  C           0.06612775183678      0.62859110942242     -2.89603724027715
  O           0.09982836999807     -0.48893732259500     -2.00755321118952
  C           2.87370819967342      1.68139807568840     -5.22510949887538
  H           1.41772598448793      2.70985935190480     -4.08794011459377
  H           1.61504208350026     -0.36073956776989     -4.08690799383189
  H          -0.85820268922110      0.46932080627446     -3.46259924608467
  H          -0.01006973013754      1.57494051313539     -2.35448264226372
  Cl         -0.34094643555304      1.92590779899764      0.17007801325670
  Cl          2.09962821852571      1.95622196275349      1.69829461424699
  Cl          2.17931922902357      2.64651595731950     -1.10373638123850
  O           1.21692114235940     -2.70470761315627     -2.11235778437226
  O           2.20037528489203     -2.45356886921022     -0.21763073399965
  N           3.76407122933381      1.66664034492088     -5.94631198141419
