22
Coordinates from ORCA-job NEB_product E -33.702787296180
  C           1.04724147904912     -2.08164008955746      1.14324985299564
  C           1.79713915059971     -2.24075533444260      2.47233284176770
  O           1.27647760154456     -0.82244674192017      0.58059287300789
  H          -0.02623712912640     -2.23485110020390      1.34679705731253
  C           2.72095572372808     -1.12619149292694      2.86249548313489
  C           1.50613109298469     -3.25929400307617      0.22319119571937
  C           0.73091013410285     -3.27880274099276     -1.06628858368839
  C          -0.23143745494052     -4.14496145969288     -1.31994597506605
  O           1.62160936000395     -3.23412541401124      3.13238658947517
  C           2.91849011925678     -3.12088306244779     -0.04856464396095
  H           1.34341168154694     -4.18730728410714      0.78280861799937
  H           1.00749942831182     -2.52459673571300     -1.79237262455404
  H          -0.50783232723658     -4.91065886970070     -0.61368184878703
  H          -0.77987538862655     -4.12599299331766     -2.24582218628183
  H           0.80026585258711     -0.75394233017134     -0.25448172220956
  C           1.91344221178180      0.02049480307461      3.47965013855056
  H           3.24446343498989     -0.76675807810870      1.97690838033994
  H           3.43536499167631     -1.50978544053368      3.59190495525019
  H           1.22238644795198      0.42929911289045      2.74831729081687
  H           2.58800790819317      0.80930995759844      3.80111389792774
  H           1.35291516187050     -0.33255091854754      4.34225527748873
  N           4.02947051975078     -2.99125978409184     -0.28144686723873
