18
Coordinates from ORCA-job NEB E -29.292001756780
  C           0.70731136508928     -0.97891163367719      0.00360841549922
  C          -0.67414922000307     -0.78339061853300      0.04112584520803
  H           1.12670271790697     -1.51015420697626      0.84434312536250
  H           1.19446764207229     -1.19795253348004     -0.93536578552899
  O          -1.42414051492730     -0.45232040316164     -1.04862829767333
  C           1.23926559791262      0.82248683528481      0.52527496899406
  C           0.57780778568468      1.03959578693317      1.72812835729247
  C          -0.84646963179956      0.98742831249153      1.68126389959836
  O          -1.23775832922871     -0.51008223846223      1.17079267566442
  I           3.37073392780006      0.80022564670771      0.53648273146213
  H           0.89294265621841      1.33706206531908     -0.36115217143269
  H           1.06462681844961      0.76177620100511      2.65094549704211
  H          -1.32958017776953      1.58783307731678      0.91369865215916
  H          -1.35819503357551      1.04297815911532      2.63379610819163
  C          -0.91004224146592     -0.69362241418997     -2.33788917732335
  H          -1.73464875734114     -0.50755003320993     -3.02384484179590
  H          -0.57413539666674     -1.72887445770191     -2.44513583198206
  H          -0.08473920835646     -0.01652754478134     -2.57744417073778
