18
Coordinates from ORCA-job NEB_reactant E -29.321427166530
  C           2.73174932195024      0.33815608974845     -0.15842439286538
  C           2.15849057438872      1.18428992870106     -1.00783274783243
  H           3.02538167219217      0.61233117960030      0.83374264106813
  H           2.92954728316273     -0.66392422684649     -0.48145686744755
  O           1.85326164577700      0.77835758705404     -2.26359467911458
  C           4.44156808819122      3.22678371132933      0.01991287060970
  C           3.43391081541029      3.33661400923245      0.86142506330003
  C           2.00880252262385      3.00932156031647      0.51448409214260
  O           1.81258798132860      2.48689613220946     -0.77425919915304
  I           6.41969419803548      3.70741473389991      0.53732904114024
  H           4.33844220887134      2.87745015744094     -0.99241210667721
  H           3.57313065786824      3.69132117302980      1.87248819590322
  H           1.42072746282317      3.93492885574171      0.53511372201693
  H           1.59795391746172      2.32780881088453      1.27293481041747
  C           1.18013081933032      1.68992742341448     -3.10773339787511
  H           1.01896832161515      1.15364164792343     -4.04072169432644
  H           1.78264894630759      2.58305954739748     -3.29304396438187
  H           0.21970356266215      1.99242167892266     -2.68275138692471
