20
Coordinates from ORCA-job NEB E -44.900935304650
  C           0.32121491162370      0.41017831277845      0.62650346819978
  C          -1.16014172256763      0.61121038796556      0.72671057678808
  C           0.97499102072856      1.55476373099633     -0.19937909571929
  H           0.72611854745441      0.49928653163465      1.64219210072592
  N          -1.51141928876487      1.87832733222554      1.56139694493335
  C           0.67624438184839     -1.01495323659974      0.12727624029636
  C           0.12748025282725     -1.34683935959821     -1.23446665579151
  C          -0.86647587794075     -2.19405630558037     -1.42142855699216
  O          -2.06087770971962     -0.03429184841325      0.32088100499024
  O           2.08480787532225     -1.08661617998617      0.18501655394089
  H           0.23654201462639     -1.71625490406097      0.85869981644860
  H           0.62181846322461     -0.87107574839973     -2.06772108086573
  H          -1.36441557527160     -2.67926093547747     -0.59819185880620
  H          -1.23171482319613     -2.42328744702720     -2.40671743357618
  F           1.48879114100905      1.13408852941050     -1.36488201895473
  F           0.04876968789491      2.48980694635313     -0.53255834492211
  H           1.77535746425562      2.06013238267694      0.35835610001389
  O          -2.65059679790995      2.23798827336941      1.49672378321948
  O          -0.61647809936556      2.36165609729610      2.21118457642774
  H           2.37998413392094     -1.87080255956350     -0.28959612035642
