19
Coordinates from ORCA-job NEB E -40.623960424430
  C           0.47322059731518      0.13297141797430      0.97518582528952
  C          -0.75871022661120     -0.45582772907894      0.57148893842679
  N           0.41561762124548      1.47801816673234      1.49607885097239
  H           1.13181287556023     -0.47447521139385      1.58882801072010
  C          -0.91739333766733     -1.94243233805697      0.85194215655026
  C           1.37645705718980      0.44120353571409     -0.75711476144010
  C           0.42242858518186      0.20554947483462     -1.75652039018722
  C          -0.79522116914742      0.88443730925651     -1.64523346639967
  O          -1.53814399203036      0.11933698587391     -0.22750139332683
  Cl          2.77881631059179     -0.58413963884032     -0.71757341865148
  H           1.63018264655191      1.47316411826415     -0.53849141395896
  H           0.43580690292844     -0.75488664403530     -2.25470653681544
  H          -1.57650011074640      0.66852944115568     -2.35886484722241
  H          -0.78736351383896      1.89742191129671     -1.26275537893342
  O           0.98785717296801      1.65243175744381      2.54957030387044
  O          -0.19779241514054      2.32412221802991      0.88586794623519
  F          -1.90875104944373     -2.47559594723140      0.08705278332092
  H          -1.18233433136632     -2.11277565969832      1.90231358092805
  H           0.01001037645956     -2.47705316824094      0.61043321062190
