19
Coordinates from ORCA-job NEB_reactant E -40.674184452780
  C           1.95685085009463     -0.01223222766063     -0.68232286690569
  C           1.23055558820843     -0.65365189559112     -1.61967660292869
  N           2.50818874937818      1.28653915760162     -0.71795304759129
  H           2.16590857675325     -0.52817945816698      0.24340250392724
  C           0.61889376689140     -1.99681020351395     -1.27525660971419
  C           4.08937216248998      1.21463804650638     -3.41652317953344
  C           3.16138312153951      0.29709580499173     -3.64026972818466
  C           1.69241362439218      0.59561678594473     -3.63667265745272
  O           0.95419840206041     -0.37235464956351     -2.89027796917059
  Cl          5.76226598460655      0.86418665114322     -3.46162778747757
  H           3.85916930374947      2.24800680465415     -3.20140065110616
  H           3.43259128666063     -0.72932371536276     -3.84409042259882
  H           1.28303183495371      0.49661915702674     -4.64682085750167
  H           1.50315145462029      1.60673287602341     -3.25996137303521
  O           3.50640276173707      1.47811441447283     -0.05426549043662
  O           1.93956884065513      2.15332648744015     -1.36380208680176
  F           0.61335903711360     -2.23295253185327      0.06548592177569
  H           1.18688281287209     -2.80692247495026     -1.74808317812059
  H          -0.41808815877651     -2.02424902914247     -1.62648391714325
