19
Coordinates from ORCA-job NEB_product E -40.667231408150
  C           2.54178770472288     -0.09086372556685     -1.35812802577311
  C           1.31225902390276     -1.00168319475848     -1.58866575796989
  N           2.13189877959125      0.98985812970530     -0.40495431540760
  H           3.32550185624190     -0.66509698661741     -0.85317336714440
  C           1.58421391384827     -2.43892477636706     -1.20314653239049
  C           3.08853472538157      0.49576303214738     -2.66433904544076
  C           2.10397176995098      1.24475208462120     -3.49587605648836
  C           2.36882725859653      2.42968971321758     -4.01556848131256
  O           0.27818901151413     -0.59275426058066     -2.01864837148145
  Cl          3.71253695475892     -0.91377435973866     -3.61970039873076
  H           3.95967533359743      1.12087021185589     -2.44792517273582
  H           1.16105357185766      0.75205254213927     -3.67938297262815
  H           1.64887009548243      2.94600967824800     -4.62467512831384
  H           3.30471570797847      2.93402913659243     -3.84155412795316
  O           1.75941915840570      0.60018975387072      0.67205381289934
  O           2.21521695590679      2.13022556728466     -0.76478988932660
  F           0.51551001511684     -3.23514251008162     -1.47165918262709
  H           1.78268456926549     -2.49787879080466     -0.12482405187633
  H           2.44193359387998     -2.82372124516702     -1.76954293529897
