34
Coordinates from ORCA-job P E -44.035379869130
  C          -1.46174376787775      0.32889025537123     -2.31432345956776
  C          -0.31166075379637     -1.80394856913014     -1.05165230068607
  C          -1.70090912881770     -1.95285903207484     -1.58466835669402
  C          -2.25546697516012     -0.93783598737264     -2.22647010052066
  C          -0.95423328940250      0.65947782921213     -0.89430973650866
  C          -0.11779711684175     -0.47990661236040     -0.27735282535395
  H          -2.20551675075030     -2.89784513137451     -1.45587707122345
  H          -3.24816675249991     -0.96893384384797     -2.64394405700040
  C          -2.24479642026375      1.51288649352455     -2.82843257534209
  H          -0.06416673480347     -2.64558675395414     -0.40651790933628
  H          -0.59702503110694      0.19658571227670     -2.97425770898691
  H           0.37505789832426     -1.81993480315449     -1.90255031025246
  H          -1.83350705726957      0.84049031315453     -0.27310307420090
  H          -0.50585077032010     -0.65226223946529      0.73265368661126
  H          -0.38418242706924      1.58616133773456     -0.93418260946486
  C           1.38154177744374     -0.11384062754274     -0.10297098155940
  O          -1.81009418255146      2.35046768226961     -3.57670068194480
  O          -3.48275039334319      1.55274628851289     -2.32095251705585
  C          -4.28525427901542      2.65529791720416     -2.71514374980938
  H          -5.24910349228606      2.51951853574105     -2.23133801224684
  H          -4.39880556382005      2.67290652330530     -3.80102879735562
  H          -3.82425188264005      3.59263491418421     -2.39682587843807
  C           1.50717960566795      1.01924685193518      0.92384960680011
  C           2.15175276715811     -1.31964031853411      0.45079832245693
  C           2.03657140924678      0.32490825194323     -1.41502504619843
  H           1.07317753335455      0.72073209115488      1.87576098616564
  H           1.00717945077981      1.92478219899945      0.59198063452156
  H           2.55527093454057      1.25950002135343      1.08843236520753
  H           1.66391348341654     -1.71251946208656      1.34032074042058
  H           3.16120165104459     -1.01971148944946      0.72378590013747
  H           2.22897451842587     -2.11563348563255     -0.28423122440791
  H           1.55490527236472      1.20571242799276     -1.83014850206082
  H           2.00255069484346     -0.46745503577482     -2.15868090366277
  H           3.08221577302475      0.56746774588479     -1.23751385244273
