34
Coordinates from ORCA-job R E -43.948995020190
  C          -1.45986962908380     -0.54520156893825     -3.05560503495680
  C          -0.62475418497443     -3.42933709559449     -2.70013536068065
  C          -1.80825134324733     -2.90788225943012     -2.38829847339070
  C          -2.12739065774979     -1.49533081332448     -2.38951520217172
  C          -1.18393414725739      1.49574009815412      0.67828831105474
  C          -0.37739574352867      0.57500765666392      0.18629479509780
  H          -2.60463758597776     -3.56220226381924     -2.05672505279792
  H          -2.98651380313469     -1.20149508340403     -1.80081492522618
  C          -1.77115681816058      0.88713098045213     -2.96347590289393
  H          -0.44921640238999     -4.49065266532764     -2.66377163107895
  H          -0.61097502856603     -0.77316687725530     -3.68248826079523
  H           0.21125202560749     -2.81736646218511     -2.99376349092081
  H          -2.25246680983411      1.35688430624204      0.68540812843218
  H          -0.80287270786040     -0.33323033722036     -0.22335352931300
  H          -0.82685657697973      2.42049852047356      1.09793918248435
  C           1.12561475529905      0.61848034691769      0.10812989836846
  O          -1.07850463909395      1.75825650342311     -3.43531413227436
  O          -2.90675737410162      1.14022974739570     -2.29117128879232
  C          -3.23147297289856      2.51168795985734     -2.13250750418751
  H          -4.09331529521131      2.54681663855888     -1.47069052571712
  H          -3.47414557429216      2.95846150923181     -3.09980058270981
  H          -2.38715871525614      3.05111085391538     -1.69837243340391
  C           1.71441871954420      1.86965868829524      0.75818834267824
  C           1.66933202251992     -0.62995560771255      0.81547684859094
  C           1.53034463225979      0.57436071546372     -1.37097643447475
  H           1.42686880620212      1.93491074025679      1.80511930454598
  H           1.37307546035291      2.76413744844469      0.24293340869804
  H           2.80050144495242      1.83898569419306      0.70415904371732
  H           1.38819110537907     -0.62338441365025      1.86647321701403
  H           2.75468859692897     -0.66403910280710      0.74917797871927
  H           1.27003392311814     -1.53256741828084      0.35645514549250
  H           1.09450529421122      1.40859009822767     -1.91565774913469
  H           1.18160985322189     -0.34642734800240     -1.83306194725972
  H           2.61276937000129      0.62175081078528     -1.46726414271373
