20
Coordinates from ORCA-job NEB_reactant E -54.146636954750
  C           1.54104341234614      0.17085124740868     -0.04497865155047
  C           0.92909751076750     -0.97393207323873      0.26564850915942
  C           2.01219360160771      0.45634841149977     -1.41926798296410
  H           1.70422610087382      0.90890947344958      0.71977348214164
  F           0.51852279063035     -1.18476519467306      1.52510628488330
  C          -0.33242213917841     -5.32117518626125     -1.20705075957222
  C          -0.22826228961113     -4.00574333300519     -1.29161163797828
  C          -0.01200324707667     -3.10927063326154     -0.11834042080209
  O           0.68142020286800     -1.95535893246742     -0.58301357824593
  C          -0.58877865504917     -6.19319517581352     -2.39666804002902
  H          -0.25530679851367     -5.86767614404815     -0.27905780070313
  H          -0.30359129377403     -3.49619488038534     -2.24245201856676
  H           0.56394850919839     -3.60945826530112      0.66915136856681
  H          -0.98522147869475     -2.81317048732788      0.29969857930605
  Cl          0.65973079938943      0.39745599040242     -2.58981995676435
  Cl          2.74855318771953      2.06152225461755     -1.50108928854449
  Cl          3.22355241607639     -0.75059074913048     -1.94990605275991
  F          -0.67700177215347     -5.51640832818438     -3.54624476263705
  F           0.37963634766106     -7.10989836020257     -2.55877212983943
  F          -1.73713720508701     -6.88174963407739     -2.26590514309998
