20
Coordinates from ORCA-job NEB_product E -54.157331204180
  C           1.48692382857715     -2.26770069483108     -0.85406560481749
  C           1.34943380532200     -1.67068662115908      0.53434196953026
  C           1.38558933029430     -1.16226156442150     -1.90846499475612
  H           2.49865772820711     -2.69026477945027     -0.92495598086077
  F           1.84289649731186     -2.55251603778507      1.44473510295219
  C           0.47936892901614     -3.45438526411076     -0.91912219338423
  C          -0.96400141536304     -3.04394802204638     -1.05861518367430
  C          -1.77856622165019     -2.93944704660345     -0.02601475031823
  O           0.89214717584171     -0.65394090560570      0.89646821071910
  C           0.82821448181288     -4.50628343227168     -1.98402072615519
  H           0.60157008851654     -3.99301321792802      0.03086656247266
  H          -1.30701996858317     -2.85554036224582     -2.06456287025459
  H          -1.45561472726479     -3.13093406229526      0.98430118975959
  H          -2.80544258538412     -2.64770008111143     -0.15259334086098
  Cl          1.65929019235362     -1.79335072765796     -3.54466980384205
  Cl         -0.15902878035754     -0.30049744563609     -1.86567838456417
  Cl          2.68832417441672      0.02007820479771     -1.55874142347984
  F           0.29271816543549     -4.28459832468621     -3.18364474196921
  F           2.14945200766635     -4.64623280246861     -2.15989750756447
  F           0.37088729383101     -5.70517681248335     -1.59026552893217
