25
Coordinates from ORCA-job NEB E -50.816108237610
  C           0.08609964709599      0.40220754307321      1.16059268042697
  C          -1.14861933033398     -0.28381052174811      1.11758674170019
  N           0.03638381893703      1.73264187586154      1.74314238450325
  H           0.94974564411577     -0.13060938770391      1.54262698706332
  C          -1.19849298701360     -1.79161802012848      1.33583042580286
  C           0.46650850296012      0.89753448515813     -0.70747599581456
  C          -0.67740766411538      0.50272031445017     -1.41153997939186
  C          -1.91425999510516      1.00256112418600     -0.96516259582090
  O          -2.16454924106481      0.23146523469248      0.56121154495996
  C           1.83269744226319      0.33908264584376     -1.01781166773963
  H           0.49972629561995      1.96323237591393     -0.49480180277886
  H          -0.66951863194821     -0.44166057346630     -1.93614486284402
  H          -2.81502950797890      0.67557696297045     -1.46560511878087
  H          -1.94487738809011      2.02673336707208     -0.60992093465050
  O           0.91884882895090      1.97902954856326      2.53339160257322
  O          -0.85795706978861      2.48321107532193      1.43756408841679
  Cl         -1.25056448770413     -2.61150314631206     -0.25223797608476
  Cl          0.17491823836107     -2.41975080741608      2.25183843233047
  Cl         -2.69813841241128     -2.18512246612809      2.21161444485013
  C           1.90049773570101     -1.17432664329952     -1.18123094989609
  H           2.52843495481685      0.65186846821361     -0.23632188128854
  H           2.16437085399918      0.81436925564369     -1.94611550199110
  H           1.55317001240472     -1.68101886079991     -0.28527592870784
  H           2.92897054581855     -1.47392451634117     -1.36466059216210
  H           1.29904219450985     -1.50888933362062     -2.02109354467552
