25
Coordinates from ORCA-job NEB_reactant E -50.850502899680
  C           1.51876792309521     -0.03470685664154     -0.05452303810977
  C           1.46213078393094     -0.84050964611420     -1.13781475652126
  N           1.66200243863224      1.37564313244116     -0.04170665242728
  H           1.43239446480961     -0.45978321405501      0.93327343320936
  C           1.14626826591806     -2.31534350791416     -0.91549625435022
  C           4.31674882122826      0.21930045526630     -4.53854561740047
  C           3.03910414637467      0.18465834281612     -4.19931638378754
  C           2.52920797744158      0.50212706209597     -2.82966057822020
  O           1.74602139891524     -0.61848078229267     -2.40249769941354
  C           4.84240639445898     -0.08635949014585     -5.90216035049241
  H           5.06539742668750      0.48328450518269     -3.80187497360428
  H           2.27658457759915     -0.08403858803463     -4.91554298432674
  H           1.90096511274414      1.40381174821327     -2.84385720285565
  H           3.35430107069300      0.66172136360787     -2.12553529484201
  O           2.18186940727389      1.86434407629371      0.93892696180615
  O           1.21543949739486      2.01255137190893     -0.97913659488418
  Cl          2.68198803842235     -3.12520898402255     -0.48443153738144
  Cl         -0.01908180251156     -2.56363318163856      0.39049757427647
  Cl          0.50931083036390     -3.04788034609131     -2.39281249667090
  C           5.83637031182725     -1.24689584920723     -5.85576505733682
  H           5.34951916458029      0.80009977425404     -6.29289904519679
  H           4.01771479532486     -0.33061117809074     -6.57300524357994
  H           6.67337133916203     -1.00813622006011     -5.20367286937352
  H           6.22242859659507     -1.45364844080863     -6.85060016557948
  H           5.35126901903847     -2.14420554696287     -5.47904317293756
