18
Coordinates from ORCA-job NEB E -29.673344495480
  C           1.16627353815357     -0.07121336388249     -0.55309114289858
  C           0.48819413046897      0.81580247853586     -1.38076771334473
  N           1.00087672463412     -1.46440596585489     -0.65564124385192
  H           2.12644103021199      0.23072745047613     -0.15419511993295
  Cl          1.07138523503152      2.51151054751238     -1.23346194804660
  C          -0.10613878674533      0.25071728637748      1.12124639978541
  C          -1.32597742430566     -0.06346177235866      0.51212085153179
  C          -1.88519466557190      0.77642386799575     -0.43482958510051
  O          -0.65353935851371      0.64086919483724     -1.83993663568947
  N           0.42405575946996     -0.58197378549503      2.07706070571225
  H           0.15873732328688      1.29414366770707      1.24233491959292
  H          -1.64705860258709     -1.09527967304395      0.55151312404888
  H          -1.74862069358856      1.84395827998895     -0.34443724734740
  H          -2.77807578268865      0.47114617628022     -0.95489799473826
  H           1.83669403685799     -1.94187918913171     -0.96800451437745
  H           0.21380623559319     -1.69177310337190     -1.25267102484864
  H           0.30001946856053     -1.56591132029239      1.88294034319867
  H           1.35812183173219     -0.35940077628005      2.38471782630657
