18
Coordinates from ORCA-job NEB_reactant E -29.694478487670
  C           1.93264421708624      0.19623177301662      0.15423232076220
  C           1.59170455041028      0.90516733727298      1.23188942878830
  N           1.79306899114443     -1.18236612194339      0.07120355535898
  H           2.29489886935881      0.69158222888040     -0.73182845180502
  Cl          1.65793496921106      2.65701645195918      1.15918717225634
  C          -0.36871647022303      0.64186654869734      5.33111825579723
  C          -0.36512296276459      0.01590318478574      4.15508538577343
  C          -0.10640333151408      0.71369669476525      2.86536860382209
  O           1.21706936131624      0.36732152502294      2.41021929201809
  N          -0.49022769710298      0.02875159345785      6.55703127153918
  H          -0.21865059649561      1.71187105911553      5.38295041424526
  H          -0.49388149314232     -1.05524838482468      4.10330482559930
  H          -0.16430362596403      1.80079389344282      2.99302943241671
  H          -0.82795343656352      0.40474257562643      2.09594165119106
  H           2.52990437772650     -1.64800000058590     -0.43766988706890
  H           1.61177011575407     -1.60845666159471      0.97010011355361
  H          -0.79983963413872     -0.93066370417690      6.53384909357398
  H          -0.89539620409874      0.57619000708249      7.29838752217812
