18
Coordinates from ORCA-job NEB_product E -29.699868697530
  C           1.62286437570175     -0.02185180999491      2.30620492846965
  C           1.20198781634530      0.78140332408963      1.09978714138110
  N           1.35030020694069     -1.43310903665507      2.13859960974391
  H           2.69441293177311      0.11598501910663      2.48322776678275
  Cl          1.77033226713456      2.45188828491175      1.14445693172974
  C           0.89227529908625      0.51438888254741      3.57245512260558
  C          -0.59619480676968      0.31519660123621      3.44310970169301
  C          -1.45178290373542      1.28814263198511      3.19333600987253
  O           0.55206495963475      0.39759420520846      0.18452456352083
  N           1.48244917681298     -0.16009875910569      4.71484012444678
  H           1.11097508903644      1.58428694364743      3.66551882623316
  H          -0.93962501870781     -0.70003178229177      3.59473962051591
  H          -1.12551866959434      2.30519102005067      3.04847919620888
  H          -2.51114201429966      1.11183254055744      3.11720902491940
  H           1.97825943758671     -1.84064070491222      1.45538478394959
  H           0.40265031048002     -1.56493543482981      1.79866404627532
  H           1.43588334262079     -1.16368468668256      4.56744299158522
  H           0.96790819995357      0.06644276113130      5.55871961006665
