22
Coordinates from ORCA-job NEB_product E -41.211951668170
  C           2.76470316337241     -0.21425060128257      0.79778224697431
  C           1.35902214434342      0.24556862957160      1.03632572925100
  C           2.78669696928902     -1.06555324063573     -0.47347551139500
  H           3.42031309957599      0.65499295301283      0.67921491571361
  C           1.17137204375878      1.34955091856987      2.10720219131285
  C           3.30602290053092     -0.96652777243926      2.06322051216725
  C           2.75873286839929     -2.36999142295765      2.12226383523977
  C           1.72343232796606     -2.72130391275016      2.86095223913761
  O           0.38670179460413     -0.18967074622854      0.47946696200258
  N           4.75232515871299     -0.88310172511022      2.04347114828490
  H           2.97573751775088     -0.41766421175048      2.95138919456707
  H           3.29353131068452     -3.09951454904894      1.52722178596425
  H           1.18822142914018     -2.00451277586685      3.46237196206983
  H           1.36431079794934     -3.73567024687286      2.89403784057814
  F           4.04682999616861     -1.53177608751076     -0.74161406598757
  H           2.47747160615537     -0.46924393683538     -1.33753645955361
  H           2.13110248115784     -1.93540075952101     -0.37385049093980
  F           0.90832433339492      0.77956113165186      3.30894205048578
  F           2.27811449317011      2.10399096664288      2.27015716223076
  H           0.32613450390329      2.00771851462413      1.85382808493620
  H           5.13760151021678     -1.40955622067866      1.26725922765636
  H           5.14079754975514     -1.24794490458408      2.90436943930371
