26
Coordinates from ORCA-job R E -33.798879994630
  C          -1.58637040398191     -0.10970747533816     -2.77592092073447
  C          -0.24650758197294     -2.70110194033141     -1.97483103118468
  C          -1.55685601551366     -2.50366785370724     -2.09691563466282
  C          -2.18684643609688     -1.22273115464605     -2.32891870715791
  C          -0.62529356256143      1.93525297636304      0.06679337677531
  C          -0.15740061575556      0.69690361135916     -0.03394529652999
  H          -2.23214602926458     -3.34382696732434     -1.99322650947891
  H          -3.25031117644906     -1.16231768081799     -2.13030330905182
  C          -2.33579036373607      1.14444444508900     -2.93755350500299
  H           0.16318817773631     -3.67934022710119     -1.78864165395925
  H          -0.53581548230568     -0.08731916423397     -3.02034143735404
  H           0.45675041740814     -1.88825152913895     -2.03676581419658
  H          -1.64579396568847      2.11055038252565      0.34916362440774
  H          -0.79814867372235     -0.14731474612940      0.18444295270319
  H          -0.02665579109881      2.80362588531599     -0.14004006763013
  N           1.09466435813557      0.31287610119546     -0.48609875583761
  O          -3.51725549640044      1.24648090975521     -2.68519905806377
  C          -1.51165218644913      2.29845820177275     -3.45296561083198
  H          -0.65264592349953      2.45139029666529     -2.80281440908402
  H          -2.11209936944499      3.20263426247239     -3.48932933930833
  H          -1.14574516071741      2.06501134590122     -4.45149628209932
  C           2.14686742840498      1.29505922725180     -0.60704797274384
  H           1.40979385194035     -0.55958300402463     -0.08589893721843
  H           2.38889124954076      1.78546463328995      0.34425929817702
  H           1.83770181580210      2.06032523940883     -1.31886850701143
  H           3.04130693569071      0.80782422442761     -0.99160649292092
