26
Coordinates from ORCA-job TS E -33.780881684720
  C          -0.96490892490258     -0.05421775800223     -0.94587786620178
  C           0.42147829713131     -2.27711907097568      0.17134078147546
  C          -0.89829059173642     -2.34767493871159     -0.15304966366064
  C          -1.58358398989621     -1.26962502384525     -0.72592186627691
  C          -0.41408668996184      0.50351208356502      1.08202205326114
  C           0.44286275415995     -0.41568127438489      1.63798453043285
  H          -1.48479051432466     -3.18209029245263      0.20776529576111
  H          -2.66272297685881     -1.29662230633295     -0.77269221434891
  C          -1.77755693099344      1.10442935886640     -1.35042334860816
  H           0.88618156390197     -3.07086667704029      0.73508827455756
  H           0.07767642330213     -0.02081925768140     -1.21814319098336
  H           1.09528209254423     -1.63615145320635     -0.36665769808744
  H          -1.44233336510230      0.49299514132773      1.39279529585821
  H           0.05512757394045     -1.15926791914732      2.31648434767551
  H          -0.03902463842303      1.45069269688330      0.73872358218050
  N           1.81054718436642     -0.24281410454013      1.74209016535254
  O          -2.98570982514832      1.12796780560006     -1.24358322258518
  C          -1.01686991761343      2.29935951907243     -1.88972322811290
  H           0.05077969421136      2.11523229237663     -1.96027972178650
  H          -1.19856049047833      3.15623047006484     -1.24313877159685
  H          -1.40819306009426      2.55009170278420     -2.87375570392973
  C           2.53152699936361      0.63380392439668      0.85209141084167
  H           2.31668485720454     -1.08366839741596      1.97732966704348
  H           2.12183363473665      1.64080112451330      0.92318910865368
  H           2.49287131395715      0.31522168902839     -0.19750293690731
  H           3.57377952671387      0.66628066525768      1.16384491999195
