23
Coordinates from ORCA-job NEB E -49.381204937230
  C           0.58651374604168     -0.48418382662591      0.65321843760518
  C          -0.74727113779914     -0.82658313387616      0.96198417023070
  C           1.24317283905154      0.58738454505990      1.48827378651625
  H           1.28716160927191     -1.30065280521292      0.50209830574951
  C          -1.24778963539374     -2.21151970843818      0.68551175589813
  C           0.29652466169123      0.30250946040193     -1.07010474782464
  C          -0.62403122934283      1.32286953553349     -0.81479973144941
  C          -1.88651101623739      0.93941162969530     -0.26291698660713
  O          -1.61645815979839      0.13761716749374      1.08863041265851
  C           1.63242345545378      0.66828376635837     -1.67705312389686
  H          -0.08280202395800     -0.60483637665656     -1.53696803331872
  H          -0.26218856393447      2.32256890708693     -0.63115615281937
  H          -2.44098559600604      0.19025376698201     -0.82639851247892
  H          -2.52047165663688      1.75366034580144      0.06727687813964
  F           1.46220760235129      0.11719665642989      2.73125785530727
  F           2.45224552659702      0.94592037474861      1.02173591921237
  F           0.55290520681400      1.71899620409554      1.63301996378856
  H          -1.57749851744565     -2.28217952910987     -0.35518001702807
  H          -2.10809090938444     -2.41904235883800      1.31672406724845
  H          -0.47697139013663     -2.95455653898523      0.86017086733472
  F           2.52154133666565     -0.34353090185919     -1.53822167821860
  F           1.47127230597023      0.83320510588120     -3.01635304551989
  H           2.08510154616529      1.58720771403368     -1.28075039052767
