23
Coordinates from ORCA-job NEB_reactant E -49.415713342710
  C           1.49322527812928      0.10940263231661     -0.15573195215448
  C           1.43803722638443     -0.44412950298111     -1.37715039409705
  C           2.04448043472321      1.40716600253673      0.31051230635661
  H           1.07108549420373     -0.45235569555802      0.66115303474583
  C           0.81019223531438     -1.79852561994251     -1.54938568188288
  C           2.80734384481888      2.47305270045965     -4.88454118226842
  C           2.86753136749300      1.34224624912448     -4.20295189266165
  C           2.55055942936007      1.22396462094294     -2.74676850851740
  O           1.86465479202973     -0.00749238210127     -2.56628352483846
  C           3.16004127948706      2.58598903092317     -6.33651773343777
  H           2.52727647275919      3.41144616243670     -4.42906031935817
  H           3.15680467924574      0.41868598195182     -4.68425745300025
  H           1.93784339839225      2.06809328540661     -2.41805516394516
  H           3.49169646456126      1.21532642039627     -2.18143181051009
  F           3.36953951228043      1.57400390558371      0.08932841914658
  F           1.45569964976759      2.49854793331232     -0.23550713343939
  F           1.88121664385270      1.53626610994151      1.63450350433823
  H           1.58072898713464     -2.52001578746575     -1.81416041682855
  H           0.09734585818108     -1.76149554649369     -2.36950764279952
  H           0.31081836081046     -2.12388798424518     -0.64448193942485
  F           4.16157586014359      3.48791014582414     -6.51724165497083
  F           3.60577020829975      1.41732018006530     -6.85196779654683
  H           2.30913252262751      2.92128115756556     -6.95519506390553
