24
Coordinates from ORCA-job NEB E -36.358180665000
  C          -0.29798742105187      0.68865411527455      1.29139879399517
  C          -0.89847500775814     -0.56249437389190      1.26507899788540
  Cl         -1.32463312064092      2.06818520850532      1.53034976483626
  H           0.66183991690106      0.78606133765651      1.77535838320267
  O          -0.05626262617635     -1.59409993092727      1.56589290023188
  C           0.08169023921372      0.85310686717539     -0.81699047161890
  C          -0.66893586178884     -0.17072936261741     -1.36320486379023
  C          -2.02404627657760     -0.28305110205351     -0.99821197973613
  O          -1.99665464961884     -0.79905497810103      0.66406436762870
  C           1.57909703908913      0.86394795631513     -0.95968179186608
  H          -0.37892571618635      1.83042907640346     -0.76272599475795
  H          -0.15253204496306     -1.07546727990191     -1.66372106097712
  H          -2.61260820927251     -1.09208385899545     -1.40713037517836
  H          -2.57795397417879      0.63730626982849     -0.86055222130368
  C          -0.53112306166999     -2.89478842473664      1.26669268465567
  H          -0.59199549617503     -3.05070480841508      0.18701662682549
  H          -1.51925607404544     -3.05534177522124      1.70391411513652
  H           0.19080353387528     -3.58121534128206      1.70257781265254
  C           2.20423972698272      2.17924400624382     -0.51207111600623
  H           1.82602142756512      0.68901590095051     -2.01144527368788
  H           2.00365143312515      0.03314123571247     -0.39065255770524
  H           1.83389963371220      3.00140199628858     -1.12022016776106
  H           3.28633076682614      2.13928687341453     -0.61244260305274
  H           1.96381582281321      2.38925039237479      0.52670603039129
