24
Coordinates from ORCA-job NEB_reactant E -36.392502942070
  C           1.56543837149498     -0.57177403064890      0.07996348519804
  C           1.71355211319136     -0.67640890789737     -1.24506517418416
  Cl          0.99489300248882      0.90254185346751      0.77238518832805
  H           1.75912423177508     -1.35330049525213      0.78679022554633
  O           2.15534254430793     -1.78699802016000     -1.89449312236116
  C           3.72899219726752      1.43751563109556     -4.36190286694210
  C           3.19878159756972      0.43734392145815     -3.67897673012472
  C           1.72897167826640      0.27489297345671     -3.43219633625456
  O           1.40085327919713      0.35705474927669     -2.04699635363590
  C           5.19168490418596      1.62240277691672     -4.60612807292348
  H           3.08844762123080      2.20111169142234     -4.78511369758122
  H           3.82657968969852     -0.32706171845157     -3.24197943616861
  H           1.37792016683017     -0.68125742653934     -3.83921329746498
  H           1.16756159916950      1.09406066632359     -3.88648586125219
  C           2.44833890557160     -2.93247124035067     -1.13078417023745
  H           1.56622865273950     -3.28376211942146     -0.58884198930957
  H           3.25840063318285     -2.73908613624323     -0.42205683781708
  H           2.76290994818896     -3.68818095410750     -1.84868325962104
  C           5.67529167263715      2.95695604707837     -4.03901029091956
  H           5.37808196906985      1.60541740440245     -5.68399597798425
  H           5.75133006672129      0.80289459743997     -4.15203449266607
  H           5.14003049871584      3.78397723307759     -4.49993275192992
  H           6.73855125331508      3.08658088207469     -4.22623619265545
  H           5.50459340318399      2.99355062158181     -2.96571198703895
