20
Coordinates from ORCA-job NEB_reactant E -42.018309642610
  C           1.39785387238958      0.23320895416521      0.18632137832732
  C           1.37905768275049      1.45977976290633     -0.31200570471267
  H           1.94027133527050     -0.04337483371316      1.07035116222321
  H           0.84599755806102     -0.54466364479998     -0.30592210300767
  C           0.61575114216809      1.84680815328085     -1.55476657619133
  C           3.24802407372229      4.84482579817370      1.06075211547214
  C           3.40919490915543      3.71458454371654      1.72879612268137
  C           2.78838145697002      2.41518504657459      1.33995448535389
  O           2.01523330877641      2.56886301480339      0.17375544359252
  C           3.88244181033992      6.13196927687267      1.47576985944493
  H           2.64398982754664      4.90920531545553      0.16991216579488
  H           4.02033590235009      3.67546618723213      2.62004877243264
  H           2.16265961926893      2.05616822772323      2.17161677361981
  H           3.58591839150706      1.67376922042431      1.17756071388714
  F          -0.04922542959613      0.78323516083499     -2.09352034937671
  H           1.30222856622761      2.22708211265157     -2.31996192622175
  H          -0.12932479686845      2.61539371391734     -1.31908173500490
  F           4.64295370227300      6.02476343211772      2.57472760214933
  F           4.67431727916240      6.63565733197667      0.51206140674167
  F           2.96663978852513      7.08217322568636      1.73803039279417
