19
Coordinates from ORCA-job P E -31.803652049620
  C          -1.33720544948210      0.34434705130579     -2.33523434719142
  C          -0.04391109864538     -1.66585807285338     -1.01213215711589
  C          -1.46337372998895     -1.89077715344953     -1.41576433187284
  C          -2.09883404762762     -0.91783651589250     -2.04858222262665
  C          -0.64683658539719      0.83033278858361     -1.04668210979961
  C           0.08261526942187     -0.30596050146043     -0.30789896481636
  H          -1.94592025617958     -2.82370540023901     -1.17491006417980
  H          -3.12909599676329     -0.99852117563155     -2.35735004074854
  C          -2.23015344990999      1.40737422665707     -2.94145969139005
  H           0.31115714914720     -2.45578602916519     -0.35147382453363
  H          -0.55329436524915      0.12536492723451     -3.07677443942615
  H           0.58905405973478     -1.66727287540860     -1.90546752151947
  H          -1.40651855056226      1.25622018142957     -0.38773540329950
  H          -0.33556221733271     -0.40370654612722      0.69449606890468
  H           0.05915846757291      1.62451744260013     -1.29554763663787
  H           1.13924929798994     -0.06029484589399     -0.20040968677063
  Br         -3.72480820527065      1.86359354948217     -1.77089293114833
  Br         -1.24322167519065      3.05345810865151     -3.32502408680931
  Br         -2.97599861626717      0.77943084017703     -4.64454660901862
