19
Coordinates from ORCA-job R E -31.705389684020
  C          -1.44759747414341     -0.21096307316385     -2.89296410431113
  C          -0.11601931144416     -2.77821412576846     -2.05972283714166
  C          -1.28383304032264     -2.32146840342650     -1.61752883689194
  C          -1.87317118600111     -1.03569883986769     -1.93541698085939
  C          -0.74492872173640      1.96999659529504      0.31284921705692
  C          -0.13441127289840      0.81446267723397      0.14709181180596
  H          -1.86851805605898     -2.93044258970707     -0.94114696164945
  H          -2.72981002415831     -0.76060599034241     -1.33400783606102
  C          -2.03939297263996      1.09157039440385     -3.23500997014002
  H           0.25017061098227     -3.74598434258018     -1.76503023867793
  H          -0.61407680152123     -0.47673163698122     -3.52956961116837
  H           0.52317127465278     -2.21007240142994     -2.71357738077343
  H          -1.70603518203394      2.04604098042694      0.79571651478913
  H          -0.55482331197995     -0.11577197448400      0.49407575084135
  H          -0.31286066323625      2.89597040445142     -0.02914292807975
  H           0.82538246688871      0.74312874002848     -0.33898544702961
  Br         -3.43427160103695      1.70756826616838     -2.04352129068961
  Br         -0.63632195670736      2.47247722752893     -3.27620764813026
  Br         -2.81931277660471      1.00027809221433     -5.06619122288979
