19
Coordinates from ORCA-job TS E -31.694208122370
  C          -0.41721904471919      0.33018599673894     -0.98146957717824
  C           1.04075967564541     -1.78898887259295      0.29948287399534
  C          -0.30925011535744     -1.81734907966538      0.15089164611456
  C          -1.02519698811821     -0.77569460749641     -0.47517970600879
  C           0.64698025616729      1.06156140875370      1.08364906414692
  C           1.23008757861469     -0.01323718180218      1.65431343529111
  H          -0.88966212744549     -2.54864834837621      0.69458312408681
  H          -2.10363110600278     -0.79068222462409     -0.38505949384751
  C          -1.18729415423764      1.45651651290789     -1.54005566052121
  H           1.53283963375780     -2.55312177595334      0.87834961496839
  H           0.61641756894781      0.30551663870521     -1.28795109461982
  H           1.67198823876995     -1.25683030251049     -0.38916055280113
  H          -0.34191105827328      1.37356301021138      1.37250229288285
  H           0.72630921184265     -0.55363225703251      2.43753898955947
  H           1.22107018974910      1.75369482212877      0.49160269782120
  H           2.29436327330254     -0.16052458506162      1.58293296265289
  Br         -2.72076289746836      1.96333052968139     -0.44364721893542
  Br         -0.08287331841655      3.04398429164398     -1.78745142888868
  Br         -1.90301481675829      0.97035602434392     -3.35587196871876
