20
Coordinates from ORCA-job NEB E -33.526107039790
  C           0.77537934752495     -0.90281579354815     -0.36724816931257
  C          -0.39300195385127     -1.44456036489374      0.20165837774922
  F           1.91865729707099     -0.94628197359263      0.35374690476564
  H           1.00072753025433     -1.11714460575926     -1.41088413021588
  C          -1.53838571665342     -1.81133044781688     -0.70215060207193
  C           0.36845414508081      0.94010644842028     -0.27571342376002
  C           0.15832774401248      1.11447178313073      1.10028494412066
  C          -0.91642103055715      0.40169872256524      1.70194905721842
  O          -0.63890169575300     -1.17043319695091      1.45244065153011
  C           1.50933873932021      1.68106427696128     -0.93980602692254
  H          -0.50790954600230      0.93293982132866     -0.92120318824333
  H           1.01237027416551      1.37023241509125      1.70915717740710
  H          -1.88837393212166      0.50686944006088      1.22166952027226
  H          -0.98266343688113      0.45810306566956      2.78149242730840
  H          -2.24678195803584     -0.98075882381079     -0.76693314285640
  H          -2.07162158988830     -2.66113322406795     -0.28249708535435
  H          -1.18996566936238     -2.06154718666178     -1.69901011306500
  F           2.58051082016217      1.84066145806013     -0.10724914046271
  H           1.17654741825784      2.68966075932442     -1.21746316550397
  H           1.87371321325716      1.16019742648965     -1.83224087260312
