20
Coordinates from ORCA-job NEB_product E -33.576782796510
  C           2.70317002800639      2.25337882421070     -1.63223022349984
  C           1.52163347648222      2.02556842954970     -2.57289702283893
  F           2.88529883324031      1.15019206692251     -0.82723989686546
  H           3.62730472691253      2.37528518245008     -2.21213860428471
  C           0.61325676472372      0.90006472582154     -2.19145415321092
  C           2.47027274461270      3.49089859671599     -0.73971512152894
  C           3.52554494672795      3.54750210808920      0.32914052658997
  C           3.26586989534433      3.54006368576698      1.62153594702788
  O           1.35652917315497      2.73902038899545     -3.52970415544809
  C           2.50347765039104      4.76704951868637     -1.58562247562945
  H           1.48423414426141      3.41107045470272     -0.26922971638017
  H           4.54313858520629      3.60244387845365     -0.03407322715237
  H           2.25844094401133      3.48626762028632      1.99939365035154
  H           4.04983836843145      3.59360519968147      2.35641021888467
  H           1.16212097874625     -0.03799163263981     -2.26140307591242
  H          -0.24972928572064      0.87395665193674     -2.85026600922237
  H           0.30055614483769      1.01233724633484     -1.15525605427005
  F           2.09153084216552      5.83004982853696     -0.82390719327130
  H           1.82572362639213      4.70585808294768     -2.44202829843685
  H           3.51958741207243      4.99397914255090     -1.92491511490219
