17
Coordinates from ORCA-job NEB E -40.147708522490
  C           1.12788397799431      0.28124796372899     -0.06116147350700
  C           0.54968528109715      0.59136502119269      1.17727257104049
  C           0.99410058855935      1.28671422451566     -1.15670369070095
  H           2.12469462471049     -0.15385004928526     -0.02175765334177
  F           1.16353509187648     -0.02024628000279      2.24103816235422
  C          -0.06141374766839     -1.41446583900440     -0.26582194041846
  C          -1.35109484244473     -0.91229543517614     -0.13298173425420
  C          -1.75388750180503     -0.38788818062579      1.10094504133681
  O          -0.61553452718419      0.97893402984345      1.35135049391034
  I           0.45003762446041     -2.47278026085426     -2.02249240024306
  H           0.41239240843870     -1.87680493733410      0.59074838398121
  H          -1.92038126932204     -0.66864324898022     -1.01743544744937
  H          -1.46149892612853     -0.89621211169086      2.01106283588831
  H          -2.70397919160038      0.12266865507771      1.15286836769692
  Br         -0.79836856925783      1.90364183182140     -1.53670150498903
  Br          2.02965130779020      2.91490426570064     -0.58541583450435
  Br          1.81417767048403      0.72371035107326     -2.82481417680010
