17
Coordinates from ORCA-job NEB_product E -40.196297183450
  C           1.63234644568612     -1.48516881534846     -0.42563695657866
  C           1.09139434190727     -0.74261825030573      0.78064537215654
  C           1.30013469017919     -0.71016050564547     -1.69242152164150
  H           2.72647187112896     -1.48392101919106     -0.31251231342085
  F           1.64986941465752     -1.24306141443748      1.90862765134434
  C           1.14155483344328     -2.95260313047677     -0.32010535534074
  C          -0.14456774384116     -3.26634206458962     -0.99980557221513
  C          -1.23553222525607     -3.60316557698691     -0.33415873337763
  O           0.30833338546545      0.13125501337154      0.84584713804658
  I           2.67969984340342     -4.35046902705776     -1.02075888300309
  H           1.06049361257822     -3.19581986040858      0.74158139334438
  H          -0.14007002669267     -3.26263454929355     -2.08086278094965
  H          -1.26174046321186     -3.63998599033137      0.74293918676708
  H          -2.15020876822856     -3.84175389143279     -0.84626051909404
  Br          2.23077111050041      1.02554638898218     -1.60164734676569
  Br          1.93952993530993     -1.61261444517713     -3.29048971233101
  Br         -0.59618025702946     -0.33848286167106     -1.92798104694092
