17
Coordinates from ORCA-job NEB_reactant E -40.190525660810
  C           1.55916321749124      0.15805860727585      0.02777886641859
  C           0.92342163671041     -0.93951474022604      0.45115798992492
  C           1.91626807412303      0.28569008453761     -1.39422860790697
  H           1.81301168251510      0.94235245929683      0.71928886843774
  F           0.58817766477230     -1.08361051548699      1.73699586207459
  C          -0.00487818825677     -5.20850535735281     -1.06683556012921
  C          -0.40652727848100     -3.95399458236406     -0.99926495385567
  C          -0.09449942934274     -3.06700040006273      0.16418150975232
  O           0.59343534143884     -1.92831921290726     -0.35691509134828
  I          -0.45126141336394     -6.46635664187767     -2.68060500971795
  H           0.56381063448643     -5.69231673345695     -0.28992829803979
  H          -0.96351636353433     -3.48730615888663     -1.79810815881711
  H           0.53686920728838     -3.57702529590741      0.90061957188448
  H          -1.02199044163880     -2.73926454352361      0.65202891023804
  Br          2.80452494664854      1.97001567757068     -1.75099130691946
  Br          3.11625972548341     -1.17538111498512     -1.97639793085040
  Br          0.32653098365990      0.17757846835633     -2.55737666114583
