21
Coordinates from ORCA-job NEB E -38.049417528590
  C           0.81961029166783      0.24645263056559      0.53651485105948
  C          -0.25147453565776     -0.45670099194962      1.12039996761942
  C           0.74915533832937      1.75324750111773      0.62902575660983
  H           1.82543970343815     -0.12603347313306      0.70466677354050
  C          -0.08057549575656     -1.87103998887973      1.58605263141592
  C           0.41361797052236     -0.13172281975041     -1.30198841161092
  C          -0.87881517208536      0.39609982986862     -1.45913526873189
  C          -1.90632207638533     -0.18311961259716     -0.66333483275392
  O          -1.45748188110847     -0.01536211496761      0.88869122823777
  C           1.47860474536782      0.40152328141067     -2.08753142721719
  H           0.50087738779547     -1.21500084761611     -1.22196690806932
  H          -0.98319789008288      1.41477854950493     -1.80146534078410
  H          -2.00122250850223     -1.26630808969389     -0.71275746300281
  H          -2.86933482605628      0.31257479678241     -0.68298924283467
  F           1.18667194403191      2.12818142990386      1.86136413628186
  F           1.56005091606413      2.38192648315328     -0.24791191090555
  H          -0.27109942020656      2.14515589173510      0.50569322136660
  H          -0.41012121761393     -2.56291921445567      0.80569140800848
  H          -0.70820199383979     -2.04534207335723      2.45717120746165
  H           0.95386130532284     -2.08236850922606      1.83640465934497
  N           2.32995741475527      0.77597734158435     -2.75259503503613
