21
Coordinates from ORCA-job NEB_product E -38.093563050230
  C           2.35165630494591     -0.60629615823436     -1.58537564158371
  C           1.24857363812219     -1.25394568992457     -0.74114689774453
  C           2.54206307301894      0.83014607447484     -1.10142179158798
  H           3.29984176029773     -1.13930088375850     -1.46334340340995
  C           1.54948905431898     -2.64989252108938     -0.28591634944537
  C           1.91181278794752     -0.67421215297249     -3.07473390414095
  C           0.81278784091339      0.30386772421413     -3.39966001181689
  C          -0.44338645131383     -0.05512072723555     -3.57850063040310
  O           0.22903548656832     -0.66667380459316     -0.49597334448214
  C           3.05220068690511     -0.43673776619749     -3.93635128376507
  H           1.56070666038205     -1.69584022290179     -3.27391805079485
  H           1.12041592735389      1.33635534976339     -3.48662260320741
  H          -0.76355469697729     -1.08137054382228     -3.50105584136110
  H          -1.20820843688749      0.66757200918911     -3.80116467288503
  F           3.15278614367733      0.80886572946877      0.10983073811489
  F           3.35060859728459      1.54184870172285     -1.91594294945913
  H           1.59010927238247      1.37043592791519     -0.99153396216660
  H           1.92629327885232     -3.25438609516624     -1.10806964827948
  H           0.66149687131368     -3.10727557751752      0.14167519000274
  H           2.32622542118839     -2.60139366461549      0.47672998500124
  N           3.94404677970578     -0.27054570871946     -4.62940492658557
