20
Coordinates from ORCA-job NEB E -32.711955686520
  C          -0.72726735360830      0.09826673172112      1.56675128148636
  C          -1.98814691913666      0.53353971254056      1.17396060782170
  Br          0.52010879435907      1.45046503029219      2.05391319883828
  H          -0.64529194486470     -0.75798212605975      2.22326135944513
  Cl         -3.23942045586723     -0.73701516659359      1.26832871038163
  C          -0.08836692545949     -0.57174182252853     -0.22317541157783
  C          -0.29929259297089      0.56381333188360     -0.99926306048636
  C          -1.61821985038153      1.02125162675999     -1.20960419538225
  O          -2.16900076972309      1.46077123237994      0.34388708345573
  C           1.28702464161497     -1.15874510260582      0.00392383115710
  H          -0.86400861141879     -1.33321310327597     -0.26334731924187
  H           0.50439390191302      1.27476748208593     -1.11674278748510
  H          -2.37992745123995      0.28041168816925     -1.43057303575425
  H          -1.75009141527126      1.95384025323456     -1.74036972127965
  C           2.45553801622370     -0.29576899637173     -0.45802644413729
  H           1.31667714001796     -2.10872801411830     -0.53881788744788
  H           1.42069732017063     -1.40137978213164      1.06045797869632
  H           2.39161322222320     -0.10225520239200     -1.52596888610325
  H           3.38718493853616     -0.82098816541766     -0.26232273246058
  H           2.48579631488319      0.65069039242785      0.07372743007407
