20
Coordinates from ORCA-job NEB_reactant E -32.736864217580
  C           2.07892366012257     -0.79867807884994     -0.16221141637744
  C           1.26792830131303     -1.35820466725344     -1.05616191328749
  Br          3.41545074825529      0.50012302550828     -0.46980298198233
  H           2.00387775405049     -1.06799998744263      0.87599321648155
  Cl          0.11752315172617     -2.50286943876605     -0.42570108147013
  C           3.68015921161540     -2.43401186788791     -2.77787853995541
  C           3.41522551815791     -1.19927590321531     -3.17082864858304
  C           2.04098721022133     -0.59459610385505     -3.19912819207262
  O           1.09004493381798     -1.26075190452568     -2.37221316438786
  C           5.03127100798558     -3.07142831123234     -2.70665204055862
  H           2.86972606934718     -3.08033472959366     -2.46085515850710
  H           4.19267554470833     -0.52792228449313     -3.49933317799915
  H           1.60785391052890     -0.68198090557462     -4.20188236379670
  H           2.08604912981668      0.46950540698096     -2.94216388973574
  C           6.19204251371779     -2.16386544635977     -3.08930703319454
  H           5.02402421574303     -3.95331369686926     -3.35543303072685
  H           5.17749384841215     -3.43615656355821     -1.68474741513144
  H           6.10021705630309     -1.83426966031288     -4.12129641363729
  H           7.13149174989192     -2.70142221215387     -2.98500285446940
  H           6.22323446426520     -1.29004667054549     -2.44299390060839
