17
Coordinates from ORCA-job P E -26.017587705880
  C          -1.33794651757490      0.42609387826494     -2.35150975917990
  C          -0.03811821538634     -1.61229752945917     -1.08041502066090
  C          -1.42071116122131     -1.87094702022244     -1.59321905285511
  C          -2.05449498574114     -0.89153469333749     -2.21732154810139
  C          -0.76164435171357      0.84715069063517     -0.98052946811752
  C          -0.02684207318594     -0.30449760804755     -0.28501264076416
  H          -1.86073871728117     -2.84321090699592     -1.44338732300264
  H          -3.05076128690222     -0.98428705333017     -2.61813521011055
  C          -2.21724931157245      1.45723020945865     -2.84825934644069
  H           0.31898637004080     -2.43024959644652     -0.45439579947241
  H          -0.51081437058178      0.31636242307654     -3.06805915436090
  H           0.64823547056512     -1.51814573105151     -1.92937415124095
  H          -1.59151256681949      1.17305523774446     -0.34846333400044
  H          -0.45454470339416     -0.47759785297900      0.70398412539570
  H          -0.10367458023949      1.70588811204482     -1.12232933913106
  Br          1.85725628808822      0.18197586636101      0.08961224246424
  N          -2.92820528708017      2.26129157428417     -3.23995522042134
