17
Coordinates from ORCA-job R E -25.931065379270
  C          -1.24875385520564     -0.17514315305533     -2.79210161446786
  C          -0.00353329500774     -2.83363663154785     -2.11831218103280
  C          -1.28320280306161     -2.50648755481168     -1.95468139342190
  C          -1.83776950819564     -1.18180159143911     -2.12679511735303
  C          -0.94939838811100      2.17537646413730      0.13614742160202
  C          -0.40503825964747      1.00192234348525      0.37430037731797
  H          -1.99120363551647     -3.26252918404885     -1.63936219599243
  H          -2.81221353839509     -1.01114582231370     -1.68441861210063
  C          -1.83217167504129      1.09662603367428     -2.88032214320461
  H           0.34047009992745     -3.84115429042021     -1.96176142782052
  H          -0.29115710328797     -0.28894616886664     -3.28089164374861
  H           0.74793036823328     -2.11044817313970     -2.38585233450056
  H          -1.87607618921651      2.45426837432772      0.60751771656509
  H          -0.81491927816441      0.25322777951770      1.03286687926609
  H          -0.51022458749860      2.89342823854401     -0.53454513433776
  Br          1.21661924204691      0.44480265104562     -0.42687774802449
  N          -2.29865759385818      2.14485068491120     -2.93256084874598
