17
Coordinates from ORCA-job TS E -25.914197126760
  C          -0.50826622828189      0.56980360249931     -1.16008125501827
  C           0.86523704014138     -1.60456766814141      0.06193066654949
  C          -0.47133177630826     -1.65078348575496     -0.18291311737857
  C          -1.15147540062693     -0.59250616786067     -0.80999622916600
  C           0.13990072002978      1.20967423445963      0.90481678061393
  C           0.95190303030072      0.25782350242182      1.42876118697284
  H          -1.07230506323910     -2.42369597647644      0.27614720296483
  H          -2.23266556915569     -0.61259071101873     -0.82577258384426
  C          -1.24148503340610      1.67779633396158     -1.62566854250529
  H           1.33789944955365     -2.36816259783154      0.65822626215882
  H           0.54234504624420      0.58293304695517     -1.41169801564391
  H           1.53034690469356     -1.04348897502273     -0.57014025749204
  H          -0.88946963791844      1.25431102809079      1.21613196684330
  H           0.64094408660827     -0.43372057829206      2.19193470261826
  H           0.54710560615750      2.09940605395955      0.45588925298342
  Br          2.84864669240703      0.48453542110657      1.36897205524684
  N          -1.83732986719969      2.59323293694414     -1.97654007590339
