18
Coordinates from ORCA-job NEB_product E -34.510330843260
  C           3.41426829590621      1.32101676034999     -0.20514818604224
  C           1.97878251164756      1.23040958656759     -0.66288447244273
  H           3.67276836160062      0.39760656691961      0.31455145459095
  H           4.04888361286827      1.42326411877184     -1.08885588137194
  O           1.55227406534127      2.37424117762174     -1.21337697248336
  C           3.62630214255669      2.53609910620212      0.71258141599112
  C           2.78971905698125      2.41370390388240      1.95431012104255
  C           1.85932027881141      3.28098293866234      2.30219714331635
  O           1.28110397245190      0.25957999081329     -0.56899981345047
  C           5.10442039951351      2.64322228952215      1.09353921858765
  H           3.36590053107034      3.44929975634855      0.16933520981982
  H           2.99133706733584      1.53907229422031      2.55722515060888
  H           1.64358008607998      4.15251756205919      1.70577056204399
  H           1.26974147758439      3.15256933913322      3.19301959596569
  H           0.63175900344070      2.28459577242040     -1.50578107562938
  F           5.55352956349738      1.50343863456396      1.66969665102213
  F           5.87343705956152      2.83563160680496     -0.00680068616747
  H           5.30397251375115      3.47164859513635      1.79102056459846
