18
Coordinates from ORCA-job NEB_reactant E -34.474188832090
  C           2.25313803681608      0.23853903744666      0.26564690437328
  C           1.56567441352178      1.07364702342158     -0.49961752260626
  H           2.80652944345878      0.55655899201922      1.12477455266779
  H           2.27641999689284     -0.80103487973103      0.00741815962149
  O           0.88958091203392      0.66198431855318     -1.59456773712983
  C           4.25678374310515      3.12010603560446      1.81496107547667
  C           3.47756436785681      3.08467268489697      0.74750315572631
  C           1.98005804438287      3.03343011630976      0.79993165046553
  O           1.40733167475874      2.42607299820811     -0.33383230825000
  C           5.75102854848772      3.21155324162916      1.75246039647419
  H           3.86566226874497      3.07280732851165      2.82098207658658
  H           3.90255077335283      3.11873913721841     -0.24632927898224
  H           1.58640937975743      4.05668896604855      0.78536557251024
  H           1.63618453234701      2.53840437513668      1.71708081904217
  H           0.46474837407745      1.43200901928638     -1.99390940608578
  F           6.32110786272437      2.15407291726702      2.39084383159053
  F           6.21797629455551      3.18646214522384      0.48388565816259
  H           6.14135133312574      4.12538654294941      2.23450240035676
