25
Coordinates from ORCA-job NEB E -49.408057055120
  C           0.25603358324178     -0.09935158275315      0.83224994608019
  C          -1.13002294735086     -0.30106457969704      1.32367104044956
  N           0.90429674756557      0.86699813905254      1.77359987087808
  H           0.83610750572138     -1.02400123341076      0.87170659169260
  C          -1.65332892545889     -1.62356615492698      1.46497023747695
  C           0.25772849962367      0.52500371812997     -0.64740657500947
  C          -1.10714717153466      0.78073295773206     -1.11167620509855
  C          -1.92469570347835      1.52749913317252     -0.24265808076169
  O          -1.95677815816252      0.66655197025822      1.20774023266685
  C           1.11684069672921     -0.31581773327382     -1.58884136582262
  H           0.73296265264395      1.50569511181856     -0.48218416218679
  H          -1.51702970236211      0.21963663575768     -1.93297323878408
  H          -2.97503480925853      1.62431929819732     -0.48791561299867
  H          -1.49152698477388      2.43196174156706      0.17802946091876
  O           0.74277543779937      2.04229343602621      1.57099907288130
  O           1.50508488136029      0.37159709792768      2.68938490081178
  Br         -3.42077670909834     -1.70965219084061      2.13326730505675
  Br         -1.92325209072295     -2.26890679644347     -0.82635300430064
  Br         -0.52985565224627     -2.97504526735960      2.16447450930410
  C           2.59882228044237     -0.25061694781032     -1.23771951889669
  H           0.97611705908066      0.06433190949358     -2.60179407546542
  H           0.77337470967493     -1.35087035856009     -1.57872915154149
  H           2.95677098291377      0.77623460988169     -1.27449489809153
  H           3.17272705392327     -0.83490027846862     -1.95138786647238
  H           2.79980676372715     -0.64906263547062     -0.24595941278688
