25
Coordinates from ORCA-job NEB_product E -49.440577993430
  C           2.83441523322992     -0.34453355088861     -2.22922066076002
  C           1.50073421599834     -1.06328821462247     -2.35773716252656
  N           2.64887314244751      0.59816992279335     -1.08000305715379
  H           3.63800215073166     -1.03109259602244     -1.93714137916915
  C           1.43369897997860     -2.45107663246135     -1.72344996809662
  C           3.27727682482047      0.44189594298519     -3.48374016156802
  C           2.18450080809310      1.35062331637347     -3.98168895947790
  C           2.07614818669462      2.61659973141318     -3.62401233213236
  O           0.54798318715222     -0.63355634605643     -2.93234397338725
  C           3.75722893571794     -0.49543345814578     -4.59797952278058
  H           4.12132885572537      1.05929956479213     -3.15295831224283
  H           1.47822487459122      0.90832322123610     -4.66890980451079
  H           1.28510685112473      3.24203957327711     -3.99879992942843
  H           2.77043113855805      3.08003366717796     -2.94127954401098
  O           3.44311783050542      1.48079158270433     -0.93687216061834
  O           1.69963690747158      0.36378932770292     -0.37092230787364
  Br          2.30602096632148     -2.58831856160009      0.00002861972039
  Br         -0.40160072949691     -3.03013870111191     -1.59248826427117
  Br          2.38517341174514     -3.59303224219579     -3.00798493077389
  C           5.06834912143684     -1.20219455402336     -4.27626769174298
  H           3.89964732379859      0.11506095270159     -5.49148635456210
  H           2.98265294970593     -1.23064756667472     -4.82650765090151
  H           5.83564782647004     -0.47922254888203     -4.00947468417586
  H           5.40817147844884     -1.75607431038977     -5.14667144344016
  H           4.96172952872932     -1.91401752008257     -3.46128836411547
