16
Coordinates from ORCA-job R E -21.406371463010
  C          -1.15904661791400      0.01566336703112     -3.22687956775023
  C          -0.11623290986222     -2.39354862132258     -1.72157033721423
  C          -1.32915598912495     -1.86111721257914     -1.61412247088191
  C          -1.86010273464810     -0.77106572497964     -2.41707346094575
  C          -0.99583596301629      1.31068812005712      0.23949091914315
  C          -0.01847218001278      0.43218701546638      0.31642145460317
  H          -2.01688553384230     -2.25934442374831     -0.87664302365544
  H          -2.92469044777122     -0.60218366307948     -2.30971193355275
  H          -1.62788336921955      0.80798878954192     -3.78486627073586
  H           0.20445518684117     -3.20020177268970     -1.08431828023320
  H          -0.09585421738611     -0.09130905947113     -3.35835491353506
  H           0.59856009984514     -2.04855040022651     -2.44862149741541
  H          -1.90077248427391      1.17496277835222      0.80764660122822
  H          -0.04301553966738     -0.46410868381432      0.91436838183365
  H          -0.93247373130896      2.19043506943676     -0.37756071009041
  Br          1.59079643136145      0.61372442202529     -0.65518489079794
