16
Coordinates from ORCA-job TS E -21.392969211240
  C          -0.56741413474149      0.74560546625284     -1.26434840692069
  C           0.71285880814340     -1.51951205863180     -0.05626890116201
  C          -0.61541728146433     -1.48500324666781     -0.30139866354072
  C          -1.24641187270015     -0.38841410927755     -0.93547278883294
  C          -0.01035287987441      1.40979209341383      0.72577875474895
  C           0.81451044503270      0.50829001771038      1.31097983965411
  H          -1.25757190833053     -2.23235291296651      0.14618319079796
  H          -2.32810700244462     -0.37440486368487     -0.93965269669238
  H          -1.10587198457034      1.59647235538620     -1.65120062008099
  H           1.14474753808673     -2.30226794913881      0.54583768958646
  H           0.47702562587973      0.71418915366264     -1.52184699983462
  H           1.40997546019296     -0.94636959956069     -0.63870585938196
  H          -1.03680731360460      1.45605019437856      1.04667639073834
  H           0.51228627568499     -0.20253110843014      2.05755067469791
  H           0.39220650506131      2.29867344636630      0.27133245085685
  Br          2.70434371964866      0.72178312118742      1.20455594536574
