18
Coordinates from ORCA-job NEB E -29.316966974200
  C          -1.41495433425555      0.35393235633744     -2.02967225408281
  C          -2.08863987035756      0.77214423324724     -0.97455798974944
  H          -0.75117418350303     -0.49096297736411     -1.97726447084520
  H          -1.49687281263107      0.85409768219230     -2.97486003318822
  I          -3.36037655160581      2.46181518414825     -1.06893346164632
  C           0.64052520354494      0.50729844559698      0.80525948697079
  C           0.08661696757122     -0.68333235552241      0.60731129776717
  C          -1.40326094929389     -0.88327814478953      0.57211909994861
  O          -2.14366639544691      0.28686427386564      0.27489500067368
  O           1.93197738280552      0.87908982906007      0.87522129856890
  H           0.01923827792549      1.38628520390714      0.92689390395008
  H           0.65592684948427     -1.59170663640667      0.48708822942173
  H          -1.77267619375390     -1.18806308852983      1.55850510375506
  H          -1.65649013661996     -1.67439638084643     -0.14730156576977
  C           2.97329662533398     -0.07292234763288      0.78245201282862
  H           3.55509507808692     -0.03556941267193      1.70623038910960
  H           3.61609580284043      0.20543662020226     -0.05553305235450
  H           2.60933923987490     -1.08673248479352      0.63214700464203
