18
Coordinates from ORCA-job NEB_reactant E -29.320198464140
  C           1.96355287586646      0.32977274688229      0.05160494518345
  C           1.45924304685843      1.14055791369204      0.96402149871384
  H           2.45809381515795     -0.58889252057100      0.31475723381043
  H           1.88695064275174      0.55601530508463     -0.99393758863236
  I           0.48528084438967      2.94116424115030      0.41100933443043
  C           4.20316691376484      0.52357521737691      4.06644070673748
  C           3.56558136497197      0.12736275764338      2.96943527451880
  C           2.07891942142506     -0.04231077306321      2.94073825191877
  O           1.42033487383728      1.05047063733783      2.29779376446034
  O           5.51876732982336      0.74214776001062      4.24189392287269
  H           3.67349516070704      0.69837575916173      4.99417551028588
  H           4.08512073586218     -0.03369399895073      2.03815508154952
  H           1.67404936892041     -0.03549978191601      3.95490566148630
  H           1.79462747726219     -0.97860026869487      2.44455734267439
  C           6.36740028371324      0.58325584558331      3.12717029460139
  H           7.37006002416956      0.82248284484239      3.47585586016762
  H           6.08869320835960      1.26504322409979      2.31811693701896
  H           6.34436261215902     -0.44632690966941      2.75710596820207
