18
Coordinates from ORCA-job NEB_product E -29.332790596260
  C           3.21407124597147      1.42461047332822      1.22980371770182
  C           1.80031976413086      1.14278685552485      0.88928962218353
  H           3.84750194926669      0.86707071378138      0.53482809878312
  H           3.43256900663815      2.49063967964360      1.15440692767796
  I           0.41167842737371      2.47551251372963      1.91209107194174
  C           3.52238053446735      0.97133264078043      2.69037122623057
  C           3.09249649690383     -0.46001036807643      2.86735965742202
  C           2.23987780295729     -0.84964143626847      3.79555205727174
  O           1.36364977783480      0.30379769053932      0.18334676362741
  O           4.86561649755564      1.23769835091654      3.02233618659913
  H           2.95691639038023      1.61052198940919      3.37904236228822
  H           3.50632778567710     -1.16892800579482      2.16275011702361
  H           1.81083265165260     -0.15594284570787      4.49995440687459
  H           1.93282668406390     -1.87732102909304      3.88725997487715
  C           5.84048535466985      0.33244129923038      2.55617821325200
  H           6.79745412980235      0.77299000388766      2.82943319737737
  H           5.80641215202652      0.20493583463338      1.46940567443645
  H           5.74528334862764     -0.64559436046394      3.03839072443157
