18
Coordinates from ORCA-job NEB_reactant E -41.395512247500
  C           1.98483407211801      0.15713903381414      0.10464077717395
  C           1.94623560779992      1.21714067790300      0.93886182479680
  C           1.10370854345453     -1.00107992429481      0.33078520925520
  H           2.66022035171403      0.14262686158184     -0.73505855123966
  C           2.81116488744868      2.32145884475154      0.69597942586214
  C          -0.28802708953930      3.51115484756415      1.10061063553497
  C           0.48279052888298      3.56261838923200      2.17114628636504
  C           1.08625543711750      2.35672118321313      2.82496828170403
  O           1.10887147629028      1.21149278691179      1.99053929960381
  F          -0.79882661751636      4.62048964845368      0.55929127319086
  H          -0.59140575705483      2.62330743323857      0.56313632436084
  H           0.70663223859098      4.51123122974889      2.63360022534118
  H           0.48632440461005      2.05219414898670      3.68916155849405
  H           2.10061103623956      2.59307362575422      3.17210974540368
  Br         -0.79566792646212     -0.46034879946989      0.29743874058403
  Br          1.36266704261185     -2.37353090129771     -1.01987130709546
  Br          1.42757337194328     -1.81063730968701      2.10332670015185
  N           3.52093839175095      3.19824822359578      0.50133355051270
