16
Coordinates from ORCA-job NEB_product E -32.564430211240
  C           3.38615797860881      0.17579599687080     -0.05480134856155
  C           2.18963343335004     -0.47648277708983      0.55937941313579
  H           3.07924451153801      0.63014328331808     -1.00270451472561
  H           3.75902275924541      0.95405922268280      0.61625730249274
  I           2.59824495186194     -1.26717953227203      2.54521827506085
  C           4.48884129755512     -0.85340313704513     -0.32521297954279
  C           3.96096628385270     -2.03300506952120     -1.09544033260801
  C           4.09024854174499     -3.28111499715362     -0.68800060445335
  O           1.11178563902526     -0.60226358435521      0.10205989385682
  N           5.54912124312902     -0.22848266134605     -1.18029257967717
  H           4.98339870592060     -1.18396624669363      0.59312316921003
  H           3.46186748607250     -1.78525632212392     -2.02246333704873
  H           4.58954094331433     -3.53344007214583      0.23303505245540
  H           3.69250835007890     -4.10126595976709     -1.25899653819937
  O           5.18622381945182      0.49069915749124     -2.07484888544848
  O           6.68439405525058     -0.53033730084939     -0.92521198594657
