16
Coordinates from ORCA-job NEB_reactant E -32.542653889020
  C           2.17881367149537      0.00552961046003      0.05731572794730
  C           2.42325837752184     -0.94278500228025      0.94212809268568
  H           2.44721480966384     -0.09249645269403     -0.98026724710678
  H           1.70448573258883      0.92202446914663      0.34933452748037
  I           1.93086623754524     -0.73448449425770      2.98632478814620
  C           5.37096843806883     -1.12388920367792     -0.43122956249421
  C           4.54672831340614     -1.92745989338434     -1.09143823453420
  C           3.32453188264999     -2.56993427221272     -0.52739972386972
  O           2.98720976622809     -2.15847232727970      0.77677248828532
  N           6.52876287977603     -0.56914300081217     -1.07376075350709
  H           5.26550577178513     -0.82776333435949      0.60109729222564
  H           4.76578054812238     -2.16536921689002     -2.12550831789289
  H           3.50122034837268     -3.64946363249644     -0.44832326085531
  H           2.47853167933124     -2.41724823974412     -1.21297511271595
  O           6.71355478393834     -0.82796722296638     -2.24299254099313
  O           7.24346675950602      0.12812221344863     -0.39017816280123
