23
Coordinates from ORCA-job NEB E -36.689578406790
  C          -0.37756721689530      1.23988171819543      0.07050062548420
  C          -1.60612789428400      0.73241184397418      0.49337143250581
  H          -0.40638256768574      1.88378728909877     -0.79389782892320
  H           0.29820356027775      1.57055299460420      0.84531516948101
  C          -1.73630840891338      0.23724805924678      1.92676481625569
  C           0.47350100372559     -0.24840041427731     -0.82788310067342
  C          -0.54263700581157     -1.19432141542666     -1.02431059747205
  C          -1.77210230807067     -0.72811564236418     -1.55207920142128
  O          -2.43249301139411      0.21016591264625     -0.35918085341098
  C           1.68573424093240     -0.65002941950808     -0.01833653568598
  H           0.72405083174785      0.34505184501475     -1.70162284161746
  H          -0.59396213800963     -2.02105240369762     -0.32555038834087
  H          -2.56737399501756     -1.44944849039844     -1.69107056081797
  H          -1.70674775092313     -0.01233136306928     -2.36708906216887
  F          -0.92109737359407     -0.83361224084272      2.16354394926733
  F          -1.34407186772567      1.19076134952941      2.80620551428059
  H          -2.76416296066194     -0.06598980120777      2.16991760101897
  C           2.82036415041487      0.36468651426962     -0.09337443810865
  H           2.04446548766169     -1.60787011573243     -0.40491939885169
  H           1.39500430447438     -0.81307324749864      1.02059956196249
  H           3.13782728466070      0.50688560779478     -1.12452661775753
  H           3.67456880234072      0.01395356299505      0.48052170752978
  H           2.51731483275082      1.32885785665390      0.30710104746407
