23
Coordinates from ORCA-job NEB_reactant E -36.726710226300
  C           2.42289800498523     -0.52158469692820      0.66945454918441
  C           1.54213455535933     -1.50349561851763      0.82375046305195
  H           3.13690953982574     -0.50566217031748     -0.13122543689430
  H           2.45309440051957      0.29613463624178      1.36383545622008
  C           0.56720313614648     -1.50183712197402      1.98339419234388
  C           4.63521029802557     -2.56464158032437     -1.40847935201065
  C           3.59232397811399     -3.06454536604968     -0.76772527936395
  C           2.16213818149000     -2.75662104996990     -1.10076419924025
  O           1.35058693740584     -2.59257061366357      0.04940777456673
  C           6.06073461383649     -2.87379072627506     -1.08501819332842
  H           4.48546097465092     -1.86924396870005     -2.22606094748485
  H           3.72364853461628     -3.75679480267484      0.05262890066727
  H           1.70950326637235     -3.60980312221245     -1.61811827296968
  H           2.08885581960338     -1.87218161891678     -1.74633504590970
  F          -0.71535411360282     -1.53809518680757      1.54874579375609
  F           0.73422573170105     -2.59734380251957      2.76361172557942
  H           0.68191204958462     -0.61325258971051      2.62224131084723
  C           6.81240548860252     -1.60769956289650     -0.67274486475572
  H           6.54292254195297     -3.30227532810755     -1.96800352105145
  H           6.10735695403310     -3.60896319125275     -0.28040020865389
  H           6.78415501882594     -0.86894951268547     -1.47076609140291
  H           7.85189521505855     -1.83829550265912     -0.45366373919059
  H           6.35977887289290     -1.17338750307873      0.21583498603930
