23
Coordinates from ORCA-job NEB_product E -36.736594464040
  C           3.05162258142041     -1.14355092339219      0.07896248592947
  C           2.45786103866755     -1.90493084993075      1.21890574202189
  H           2.22052942671548     -0.62073211170014     -0.40881974984900
  H           3.70017427051540     -0.36709121053547      0.49379465845862
  C           1.90967666953178     -0.96768645601790      2.33237008176034
  C           3.81177900944380     -1.97605135191080     -0.96682234120243
  C           2.86720433851385     -2.88669918131479     -1.69766012676043
  C           2.59850204149760     -2.79243320736793     -2.98565495983340
  O           2.36569617034772     -3.09250269868950      1.35361114447824
  C           4.95510808353405     -2.79524798666673     -0.34948834850785
  H           4.24269116676195     -1.26795690601391     -1.68439797307019
  H           2.40696891265464     -3.65429508055543     -1.09234012797915
  H           1.91913736781174     -3.46711029114997     -3.47779424665362
  H           3.04995408054687     -2.03574529946100     -3.60763114178234
  F           2.92553142573571     -0.24289424398578      2.86230921284497
  F           1.03427074818786     -0.07485073864864      1.81109138791014
  H           1.41228721561584     -1.52103100124185      3.14153249988492
  C           6.00832349741041     -1.93546037156732      0.34038589471252
  H           5.42791643661037     -3.36085281246237     -1.15562773008099
  H           4.54486175123275     -3.51397212527516      0.36025810226051
  H           6.36989471661295     -1.15766516327598     -0.32970129446318
  H           6.85484875502071     -2.55171003936900      0.63340068317636
  H           5.61346029561058     -1.46582994946740      1.23821614674460
