23
Coordinates from ORCA-job NEB E -55.860891588640
  C           0.56088623209756      0.39028931330761      0.55373350140215
  C          -0.81072761784960      0.69376014882681      0.99129489156442
  C           1.20354765129046      1.60913260267406     -0.11987106227678
  H           1.20726353299029      0.05988191501758      1.37060708922749
  C          -1.31273907055156      0.28188578678634      2.27455236145439
  C           0.40898515380775     -0.83755527701735     -0.50280202881027
  C          -0.54779174552724     -0.44487094460041     -1.52669362051135
  C          -1.83983993340275     -0.05405467747001     -1.08563320306491
  O          -1.68514120648780      1.00462146550631      0.08230724848263
  C           1.75241779815062     -1.27362975170572     -1.08396363805411
  H           0.05068254692879     -1.66839416250236      0.11995665979482
  H          -0.19136429653886     -0.16180105321242     -2.50397812031171
  H          -2.39477262966153     -0.81732091655213     -0.53410238759017
  H          -2.46448017515856      0.44368471411440     -1.81985173959438
  F           2.55165022518147      1.44223946596718     -0.21808675030610
  H           1.04457331909024      2.49997516443832      0.49814645911172
  H           0.81201089352992      1.77670930681358     -1.12811249174008
  Br         -0.12851515298629      0.39604941911979      3.75523798878700
  Br         -3.03349492546579      0.98527207287735      2.67738827512098
  Br         -1.71596500161296     -1.99323090636662      2.04581718520861
  F           2.70365410433075     -1.37727943693473     -0.15564769449647
  F           1.62646878672740     -2.48930893761150     -1.64311862185650
  F           2.20269151111770     -0.46605531147608     -2.04718030154140
