18
Coordinates from ORCA-job NEB_product E -42.766154438290
  C           1.54198248651309     -1.88649311755274     -1.06521212337727
  C           2.65859023710976     -1.58719474101276     -0.04487269742328
  Cl          0.90430433494753     -0.32576778286353     -1.65592154173109
  H           0.70405479479758     -2.40803155465610     -0.59135232830976
  O           2.61860658224390     -2.32114283579856      1.06696398582504
  C           2.05414071104234     -2.69370358332825     -2.27292351620465
  C           3.09370248946503     -1.95063999567825     -3.07126408667102
  C           3.01752594636026     -1.80004209231623     -4.37880854683745
  O           3.49927059315157     -0.76303982866286     -0.22640225313671
  C           2.63711059441294     -4.02281789772017     -1.79169857438258
  H           1.20070050788903     -2.94219986465447     -2.91461563247082
  H           3.91312404981994     -1.54237252612422     -2.49840074210504
  H           2.19973685477814     -2.19913042717382     -4.95654952178479
  H           3.77590391460471     -1.26733961960599     -4.92396777338259
  H           1.93052310748969     -3.00055479015709      1.09138983903861
  F           3.82975858351392     -3.90152025428967     -1.20483985466889
  F           1.83462385569497     -4.61461263184163     -0.87577843741797
  F           2.77624035616561     -4.89489645656366     -2.79124619495972
