18
Coordinates from ORCA-job NEB_reactant E -42.749313019720
  C           1.14825748146581     -0.71829929443568     -0.03226077998548
  C           2.17212251321103     -1.02515786699874     -0.83233601110483
  Cl         -0.35409490849863     -0.17203727398890     -0.67693777925166
  H           1.19817875826824     -0.77879920867770      1.03966850682570
  O           3.37138671431197     -1.46707391700102     -0.36744427638851
  C           2.31558397384220     -3.70361893612592     -2.49159845853164
  C           3.23610852350101     -2.89046132459954     -2.98298748007130
  C           3.14854854109340     -1.39739080975610     -2.94628424013753
  O           2.07774415323592     -0.90107098673489     -2.17179165840906
  C           2.44486355794669     -5.19130009121546     -2.52255425095978
  H           1.40566192502126     -3.35460595148675     -2.02681758048202
  H           4.12944514952580     -3.28145382207896     -3.44971397776191
  H           2.96286407602655     -1.01878106835656     -3.95670787019770
  H           4.10377281124520     -0.99131473104989     -2.59104982908143
  H           3.35540427802721     -1.52659233132262      0.59358940202515
  F           2.47367410513223     -5.71453327520953     -1.28152519499110
  F           1.40890070548216     -5.77579315076913     -3.14790793023690
  F           3.55467764116193     -5.62071596019258     -3.13934059125998
