16
Coordinates from ORCA-job NEB E -29.820106138990
  C          -0.04127094680060     -1.21911994121656      0.90343580553088
  C          -1.32516448962366     -0.72842304536858      0.91028436308778
  Cl          1.08659300013427     -0.67292992071180      2.11086096889053
  H           0.15555175908525     -2.23158520184116      0.58160646102080
  Br         -2.50398930683590     -1.83468978108777     -0.28119558745317
  C           0.65018704295580      0.00163257689053     -0.79929448939426
  C           0.24414414206576      1.23316999528939     -0.27213449818398
  C          -1.08928743166760      1.57558116737333     -0.18536125773087
  O          -1.72220247401266      0.40326465278252      1.17530443372401
  N           1.96391011176187     -0.31504060158274     -0.91077100890666
  H          -0.00210538835794     -0.51235700111454     -1.49500996229793
  H           0.96547046790640      1.78278701241037      0.31648666148051
  H          -1.79301561872289      1.18552167537878     -0.90673596949532
  H          -1.37462216107280      2.50144618021723      0.28507189700204
  H           2.58328685441120      0.07462035233414     -0.21558646203214
  H           2.20251443877352     -1.24387811975315     -1.21696135524221
