16
Coordinates from ORCA-job NEB_product E -29.846564029140
  C           2.98120671757638     -0.15083638791834     -1.56835202865230
  C           1.54566065878198      0.02029886860611     -1.20516203397400
  Cl          3.96532541872932      0.16416638558401     -0.11139356193812
  H           3.18518918828119     -1.17693370928151     -1.88603511291442
  Br          0.39237976060244     -0.69651539561742     -2.62836162486616
  C           3.37975134683791      0.80785629451554     -2.71961721832559
  C           3.10979815462256      2.23802418001957     -2.32655467161791
  C           2.21876216793900      3.00406200240034     -2.92663707763636
  O           1.04566119731286      0.50797192854949     -0.25922723335434
  N           4.75826561660033      0.52589840654461     -3.06881392753152
  H           2.76581587765360      0.54385336252989     -3.59004868340648
  H           3.71738158558177      2.61649195016854     -1.51570384471564
  H           1.60777200527085      2.63800562889165     -3.73623150799145
  H           2.05968002682349      4.02677647898406     -2.63171258099489
  H           5.37362874851168      0.75567737797761     -2.29490882012797
  H           5.03652152887463      1.07550262804585     -3.87274007195286
