16
Coordinates from ORCA-job NEB_reactant E -29.839265218150
  C           2.24022529124382     -0.16963285167750     -0.62737292666470
  C           1.47662062604751      0.12012468894990     -1.67586696264482
  Cl          3.12738612194946      0.97150775501104      0.31746545008411
  H           2.34262506942666     -1.18589031329513     -0.28727608243488
  Br          0.59498195396668     -1.35270908487310     -2.50710454282890
  C           3.77842260559397      1.26737715888392     -3.51992248725632
  C           3.40230258572020      2.15634889737954     -2.60119130255210
  C           1.97105701610003      2.39708959174065     -2.22793043679747
  O           1.15337391486356      1.22809349595068     -2.33250431131245
  N           5.06881609399925      1.07407663612431     -3.95254260789274
  H           3.04412544993562      0.66870417720991     -4.04328469274664
  H           4.13215070852041      2.75814695288548     -2.08226826077333
  H           1.48550106981383      3.09592478709257     -2.91920392132301
  H           1.90289138274937      2.80969895378236     -1.21621342905924
  H           5.78832991357605      1.47796755196740     -3.37286762178922
  H           5.29189019649357      0.16127160286797     -4.31341586400829
