21
Coordinates from ORCA-job NEB E -33.951715738160
  C           0.52683237733140     -0.69406006475902     -1.06262577016297
  C          -0.59977817976707      0.13333363673412     -1.00009150690728
  C           0.45389764503021     -2.07374653725186     -0.84015782424379
  H           1.33814038494676     -0.36761484095108     -1.70178939806826
  O          -0.44868466942032      1.31877243167111     -1.65943204644944
  C           1.27072476582105     -0.31708825871125      1.00057921816937
  C           0.08331580726507     -0.65710928090003      1.65113927737166
  C          -1.04122360934191      0.13974149365570      1.53944245476282
  O          -1.58599398668893     -0.07119353280914     -0.24852702751255
  N           2.38932564846533     -1.08187638799030      1.13249509444484
  H           1.46131609060300      0.72145171012802      0.75802004265349
  H          -0.03376085231376     -1.68392784819257      1.96597349798821
  H          -0.92474434474232      1.20943846654817      1.44324456442020
  H          -1.96294243529208     -0.18065650446607      1.99521761112518
  N           0.48048333697417     -3.20360550176861     -0.63160311349989
  C          -1.50729325946366      2.25191417538385     -1.55022797350725
  H          -1.51289452343681      2.82863203731078     -2.47329699751955
  H          -1.33896493546191      2.91971571845309     -0.70058061898215
  H          -2.46069603972887      1.73674638345608     -1.41757245582668
  H           2.23118448965198     -2.07345527410191      1.24648437581080
  H           3.18175628956867     -0.85541202143909      0.55330859593323
