21
Coordinates from ORCA-job NEB_reactant E -33.979240721690
  C           1.54732883792413      0.03488457624982      0.01815845740153
  C           1.48534534019647      1.31949912189441      0.43845771786859
  C           1.67818869296290     -1.11765151372720      0.78704562519756
  H           1.48847885017179     -0.12486638608434     -1.04843079682155
  O           1.35026164785836      2.25859864055021     -0.51924946532898
  C           4.10807268081100      1.34125985662991      3.64224468019531
  C           3.24216577876310      0.64159943586629      2.90894916471735
  C           1.79583957621320      0.99707609040084      2.81033193405653
  O           1.51015570185374      1.82664736897204      1.67421923351206
  N           5.46566246558113      1.12924011099833      3.67373834993016
  H           3.77535689461349      2.18667182855974      4.23082229996212
  H           3.57831660604373     -0.19762363371890      2.31933719001801
  H           1.49137320223147      1.62020541014675      3.65502885034531
  H           1.17075622786912      0.10069461602402      2.77139443822960
  N           1.78939523709417     -2.11210362851254      1.35698452124068
  C           1.28799276137477      3.61291697359204     -0.11429139532213
  H           1.20464956991394      4.18559494218186     -1.03546575139658
  H           2.19070894378871      3.90342148063392      0.42813569420053
  H           0.41688112338830      3.79460775198349      0.51951457674720
  H           5.77270240162193      0.25423924783925      3.27649574429920
  H           5.94436745972455      1.38768770952007      4.52097893094748
