21
Coordinates from ORCA-job NEB_product E -33.989095088700
  C           3.31855676158768      1.18311267298721      1.09703308368898
  C           2.23089007264861      2.25049306612281      0.98027547731920
  C           2.96533085299326      0.01489961866355      0.33057405431643
  H           4.24354214486705      1.59752483084737      0.67584310981061
  O           1.74263327575864      2.29066142616513     -0.25664009171688
  C           3.58736708004059      0.82078956814185      2.58014790210089
  C           2.41001548750921      0.08369910550032      3.16213161265256
  C           1.67854967416903      0.53873228669752      4.16097061803180
  O           1.88216298790808      2.96784200315782      1.87556345272036
  N           4.83544966143753      0.07248096950780      2.63645971986946
  H           3.73453895408190      1.76100645716231      3.12296082421097
  H           2.20746902515012     -0.88198857465443      2.71423542405821
  H           1.86859288609457      1.50193431216306      4.60425701427554
  H           0.85281418763993     -0.02274915810943      4.56396161440155
  N           2.68875155538954     -0.93782693196770     -0.23726450135499
  C           0.72470227858237      3.25342935225911     -0.50425443773203
  H           0.45573385144939      3.14400379826662     -1.55117377810724
  H           1.09928574738054      4.25912336495864     -0.30428378573535
  H          -0.13785624261917      3.06325418023486      0.13683403729246
  H           4.72440990400662     -0.82946433623824      2.18174402389818
  H           5.09785985392452     -0.09645801186619      3.60082462599929
