20
Coordinates from ORCA-job NEB E -45.318316709950
  C           0.80401347338146     -0.32315505850708      0.10531740273482
  C          -0.37044378961014     -1.18037660481363     -0.22811668173629
  C           1.04902369136656     -0.35136003766610      1.63710395055997
  H           1.70010985147419     -0.79299611930325     -0.32266886333404
  N          -0.31553464582567     -2.53172542454798      0.07409606248580
  C           0.68826875410270      1.11267240089021     -0.44233967091851
  C          -0.45074393145066      1.30684900293510     -1.37185367919762
  C          -1.64379511834326      0.46934755224340     -1.32499177343919
  O          -1.52444135293667     -0.79624141342410     -0.77005428606045
  C           0.45725095161832      2.13250855173630      0.58082585276935
  H           1.63742375054134      1.38862501147467     -0.92176707718643
  H          -0.54789620855853      2.26752741268517     -1.84783010611644
  H          -2.04929149600851      0.31088394243765     -2.33500819868495
  H          -2.44520872928954      0.98899775148547     -0.77106813258223
  F           2.08943146305735      0.45069290090330      1.95004645276395
  F          -0.02944234372113      0.11521355274612      2.30301383011712
  H           1.27116396422816     -1.36719146996970      1.99243580016204
  O          -1.29013397489022     -3.22832767930255     -0.17702717873227
  O           0.74499376810443     -2.94992225191311      0.55887916415304
  N           0.22525192275986      2.97797797991011      1.31100713224233
