20
Coordinates from ORCA-job NEB_product E -45.357483745400
  C           2.36082777477262      1.29866446781130     -1.07452428147064
  C           1.28481220421922      0.30368354577220     -1.37451924545513
  C           2.49957056322199      1.42031790365318      0.44976921506385
  H           3.31778794121903      0.96942813647418     -1.49648716294091
  N           1.46843260920108     -0.39676465702542     -2.74688803644042
  C           1.95742192323904      2.64492473658985     -1.75664935108995
  C           0.72785336922464      3.25228591191633     -1.13026999223153
  C          -0.46887812445823      3.18666138170670     -1.68168128075874
  O           0.31396854680791      0.03793251348020     -0.75288899808385
  C           3.06000952492399      3.58544780006664     -1.69130069471488
  H           1.77867988911666      2.43923666546856     -2.82010437611228
  H           0.88690607058367      3.76139690507038     -0.19024583807321
  H          -0.64247378768637      2.69570959851533     -2.62595140889226
  H          -1.32950533583189      3.62697697779658     -1.21051681837579
  F           3.04661915464968      0.28018839312880      0.92885403595227
  F           3.33218695573098      2.41967316382260      0.79216179013741
  H           1.53558549067369      1.57470147018518      0.95871744816516
  O           0.67990782968115     -1.26296142504056     -2.99189946534261
  O           2.36737302969264      0.00824271065101     -3.44304242138732
  N           3.90361437101849      4.35255379995696     -1.66343311794918
