14
Coordinates from ORCA-job NEB E -30.780355900510
  C           0.44116436217387      1.19062087402495      0.81249552641197
  C          -0.89114828474693      0.79691944980013      0.89555489590515
  Br          0.88627281846026      2.47474618576475     -0.50995657520899
  H           1.01108389204538      1.32763878053800      1.72331075528849
  F          -1.20521844466504      0.18048412574592      2.08859056374098
  C           1.12812676806433     -0.55665277829943      0.03920719432755
  C           0.31122225790074     -0.71736283518273     -1.06946517052269
  C          -1.06640956764464     -0.92731764405037     -0.86308834268942
  O          -1.61025039097484      0.50871212881423     -0.08659525152008
  F           2.42415272459705     -0.27876182882393     -0.14879385848094
  H           0.98873391737711     -1.13726326336228      0.94769298280441
  H           0.65317682643934     -0.29778748123295     -2.00464914234881
  H          -1.36409359658298     -1.62811405922076     -0.09106465770366
  H          -1.70681328244364     -0.93586165451553     -1.73323892000396
