14
Coordinates from ORCA-job NEB_product E -30.824416774290
  C           3.02466443931301     -1.48005630504489      0.19296774625666
  C           1.75187449660115     -1.53599788872411      0.98175327226944
  Br          2.80203641307609      0.07937722925600     -0.99105129829405
  H           3.87220947998443     -1.23500914299146      0.83989765528380
  F           1.69892156327268     -0.52248902348864      1.87567810163411
  C           3.29562622352500     -2.78091573001720     -0.57613660416330
  C           2.60871790483490     -2.84813412946033     -1.90870430501301
  C           1.41423196705102     -3.37738035628031     -2.08671879260578
  O           0.86214230909787     -2.30461037468149      0.90106591197583
  F           4.65809599231768     -2.88789264832745     -0.74716432658212
  H           2.99829893504319     -3.62256201453703      0.06587217990987
  H           3.17399216248324     -2.41327012142312     -2.72070370578235
  H           0.85288712068681     -3.80705251393241     -1.27390922679954
  H           0.94670099271294     -3.38240698034756     -3.05534660808954
