16
Coordinates from ORCA-job NEB E -32.508775229530
  C           0.51203547226441     -0.72302047597393      1.12340777482907
  C          -0.80105361481476     -0.55047875351563      0.68901025477289
  I           1.16814293155223      0.36935935968517      2.81044630438128
  H           0.89741910837513     -1.73654160683458      1.13424931968544
  N          -1.33895436666809     -1.60055887972100     -0.14866982269103
  C           1.39321034798540      0.13238629186261     -0.42532420310032
  C           0.73164407600834      1.34468133491844     -0.48406685718966
  C          -0.69831088070232      1.35086054418848     -0.72546797773112
  O          -1.29182855655165      0.64859899479895      0.50160159157293
  H           2.43768543003361      0.13248081584599     -0.14500394683103
  H           1.13266617007698     -0.64631436887170     -1.13093531257336
  H           1.15297363454985      2.19665486610499      0.03120664191065
  H          -1.03803099554898      0.76291308808102     -1.58018470462802
  H          -1.16827359305937      2.32910935304822     -0.70714217328087
  O          -2.22933354232329     -1.29512951453132     -0.91468247623964
  O          -0.85999162117750     -2.71500104908570     -0.02844441288722
