16
Coordinates from ORCA-job NEB_reactant E -32.527741701520
  C           1.89802925585512     -0.04318660740629     -0.24296363094437
  C           1.45037356094406     -0.18853173474398     -1.49101768472950
  I           2.68180216831798      1.63597367866957      0.72315362554011
  H           1.83525003038015     -0.90320289047353      0.40546489675146
  N           0.91168870727035     -1.53673596299104     -1.81863172248430
  C           4.22021740540669      1.98929223579594     -3.95023154181694
  C           3.52226457409517      1.55082937779214     -2.92092575572545
  C           2.04998609706820      1.78250151142387     -2.75810842050700
  O           1.32596697297122      0.56914237744566     -2.57445101584344
  H           5.27928846791606      1.81710915639870     -4.02910999238917
  H           3.76272495431277      2.54784587662856     -4.74960534554757
  H           3.99986558125773      0.98648321869589     -2.13148510494650
  H           1.62591594879310      2.20229011440426     -3.67267829244776
  H           1.85384784739569      2.47414717083713     -1.93053028594089
  O           0.58312242412262     -1.71812725898051     -2.96008102199531
  O           0.84235600389309     -2.34503026349637     -0.92189870697336
