22
Coordinates from ORCA-job NEB_reactant E -28.534928474390
  C           1.68967184642798     -0.06837007340395      0.10332565491426
  C           1.38915312912017     -0.75154438661508     -1.00408164113309
  N           1.74980373707243      1.32696758496129      0.21585049462236
  H           1.98771032955657     -0.61305219934260      0.98665290413069
  C           1.29676383352553     -2.25509558794700     -1.02136014596958
  C           3.50820222176777     -0.11812569611703     -4.58427884843991
  C           3.17925954684708      0.00716609137561     -3.31276690293295
  C           1.95072742458863      0.71614493393509     -2.82522702270217
  O           1.01302167242982     -0.15140623360699     -2.20021489295894
  H           4.40280217046153     -0.63153843033368     -4.89454500835173
  H           2.89734482335952      0.29511166321100     -5.37036814584670
  H           3.79941690989348     -0.41344132920019     -2.53286458701155
  H           1.40114165399013      1.15161650792462     -3.66414822270857
  H           2.26262767886175      1.51431643914963     -2.13830736506832
  H           1.06881238196429      1.79486984894395     -0.36779968265077
  H           1.69333652204464      1.64959769145381      1.17070131073812
  C           2.45864062181702     -2.91887811409564     -1.76067831172217
  H           0.36335901989874     -2.52321661453458     -1.52183995828951
  H           1.25624198367109     -2.62378272461681      0.00433770014280
  H           2.49649608355864     -2.57483405960427     -2.79124878132840
  H           2.33359604674925     -3.99952518976302     -1.76090017797797
  H           3.40377036239392     -2.68138012177416     -1.27673836945590
