17
Coordinates from ORCA-job NEB_reactant E -30.334029455000
  C           1.16606686034882     -0.00297346918072     -0.49760863528903
  C           2.09740383983170      0.95602449499486     -0.53567815934671
  Cl         -0.43770320750268      0.33062195740780      0.04238182522613
  H           1.35488033547580     -1.02424157285437     -0.77432641947573
  O           3.36774282082138      0.70809669580732     -0.96278176917832
  C           2.26390290053754      4.65400438749748     -2.34573072978128
  C           2.88591106016223      3.58913037338718     -1.84283822850408
  C           2.81919333739751      3.22021684470325     -0.39663035203518
  O           1.83757391041321      2.20410630569924     -0.13765054602601
  N           2.34788941255136      5.07603573886735     -3.65381003786444
  H           1.70633733227899      5.31902430694303     -1.69973722297294
  H           3.43567934368034      2.91850065667170     -2.48683172807233
  H           2.47669532808646      4.06351535542660      0.20573647565031
  H           3.79377355454219      2.87677002428486     -0.03460513767381
  H           3.46328816721224     -0.22383535231139     -1.18480390146831
  H           2.69054007693728      4.38861889784134     -4.30778765154879
  H           1.57452492722562      5.62018435481446     -3.99929778163947
