17
Coordinates from ORCA-job NEB_product E -30.349247602940
  C           2.24032409530583      1.63058180448634     -1.85389091938155
  C           0.88070272561598      1.28852357035962     -2.47967987700227
  Cl          2.51854089303292      0.71019499033887     -0.34821055950758
  H           3.03591410827248      1.36997004152044     -2.55700145910537
  O           0.09316362826228      0.47537579960020     -1.79960212948931
  C           2.31374147279058      3.15320407522003     -1.58665816443433
  C           3.48412832072104      3.47179016562793     -0.69676372005573
  C           3.37418675759518      3.95186879823785      0.52638066325660
  O           0.55486165723318      1.77544512335162     -3.52649128572383
  N           2.52582958436806      3.79553062854522     -2.87224457270601
  H           1.37772124398414      3.45811762933376     -1.07959481397692
  H           4.44741416446102      3.29278028687839     -1.15214539503076
  H           2.41398692558512      4.13681823110490      0.98088630154194
  H           4.23777581691293      4.17409315302355      1.12893932058842
  H           0.52572134077845      0.16537492486286     -0.97840982975005
  H           2.47994467065826      4.80291244066580     -2.77090305113946
  H           1.81214259442255      3.50611833684262     -3.53441050808379
