17
Coordinates from ORCA-job NEB E -39.225324529130
  C           0.97955319751347      0.29827644162294      0.40753433881229
  C           0.12842123888298     -0.24019918104524      1.39100886495915
  C           0.84055346283789      1.77843435160612      0.16007250262908
  H           2.03370794491628      0.03620943287077      0.49306139024566
  I           0.89202197557937     -1.94410602695107      2.47333582182389
  C           0.34487764105134     -0.82748967273942     -1.05501767656964
  C          -1.04055973771350     -0.64470211787163     -1.06755987434331
  C          -1.77499336403254     -1.00564725547148      0.09487021951369
  O          -1.12998011630713     -0.11687255747076      1.31790526515922
  I           1.38815383842206     -0.48925469384364     -2.87880255283114
  H           0.73507100486675     -1.73650991806129     -0.61018151902558
  H          -1.48619904505925      0.03858766460280     -1.77320220413401
  H          -1.59736805196175     -1.99847461593482      0.50423092606099
  H          -2.81976573838360     -0.72125726764405      0.11224829524096
  Br          1.25466213213213      2.68745700536101      1.89507938322414
  Br          2.15813620221393      2.47026572942919     -1.09289056687562
  Br         -0.90629258495843      2.41528268154057     -0.37169261388975
