17
Coordinates from ORCA-job NEB_product E -39.271120441670
  C           1.57225545099636     -0.73841705428604     -1.37854545806256
  C           0.89443149886154     -1.05160722603222     -0.05801047541795
  C           1.22483037721706      0.68309792917278     -1.80149164316451
  H           2.65748796230050     -0.76381483253184     -1.22380381178644
  I           2.05697259306877     -2.40305762627604      1.16473219852682
  C           1.18570228315531     -1.89455534669550     -2.33363270590792
  C          -0.04015668450704     -1.69169953341353     -3.15142732671913
  C          -1.13925762407608     -2.40393206087276     -2.97459702552851
  O          -0.16552027826644     -0.68557765467383      0.30729890369878
  I           2.85540271870672     -2.41034759885418     -3.65661348018833
  H           1.07002341323971     -2.79537610331109     -1.72462025592856
  H           0.02040942894743     -0.96012819804743     -3.94534560519963
  H          -1.21774522328465     -3.15563799526916     -2.20589798388891
  H          -2.00968611746058     -2.24859450895078     -3.58621172309994
  Br          1.97449650259817      1.89171524888296     -0.42655138337807
  Br          2.06596588590000      1.14685012844473     -3.49522477496835
  Br         -0.67171218739678      1.08778243271393     -1.94375744898679
