17
Coordinates from ORCA-job NEB_reactant E -39.264994366760
  C           1.61011606015102      0.06132015541260      0.11141524790115
  C           0.93035696767528     -1.02286493230486     -0.28753818812650
  C           1.95914973945258      1.10519593730127     -0.87084001020158
  H           1.90719423146941      0.19550591359403      1.13706434407522
  I           0.44495394505299     -2.52884031468679      1.12291461136982
  C           0.32905082786761     -2.71406913365162     -4.50362325690626
  C          -0.27063244056924     -2.03687530505214     -3.54368621027455
  C          -0.02249872497906     -2.30690468134631     -2.09175796523767
  O           0.55377306978388     -1.12780201572888     -1.55128399947788
  I          -0.00072958685647     -2.34636155418889     -6.53817974104696
  H           1.01886494361749     -3.52099142853768     -4.31900181490235
  H          -0.94435650573184     -1.21965648953176     -3.75392059185428
  H           0.66082912818995     -3.15462134953317     -1.95939968355481
  H          -0.97122226838865     -2.52019483509727     -1.57984247236022
  Br          2.97459186825890      2.54087524041444     -0.04866450876512
  Br          3.03686917160795      0.37118836910238     -2.35944545393826
  Br          0.34808957339820      1.89569642383465     -1.70121030669973
