23
Coordinates from ORCA-job NEB E -51.725088180470
  C           0.53236038581104     -0.25768066593731      0.53153269022560
  C          -0.37269656794648     -1.19851681161057     -0.03553760211109
  C           0.46368938384976     -0.00824941990543      2.01319384091316
  H           1.57205415239263     -0.33042156572472      0.22478292858946
  O          -0.03310109951271     -1.95290830808883     -1.10452517670956
  C          -0.13182460130438      1.28862979279728     -0.46289483229446
  C          -1.51102993865490      1.34152041944621     -0.22759975488226
  C          -2.28315639962345      0.23535915821014     -0.64106314110088
  O          -1.62328164248646     -1.09509189951947      0.17429464723897
  N           0.67747927866173      2.42179567460012     -0.03358451342789
  H           0.23184887993003      0.92654858827090     -1.42102336152070
  H          -1.86463829862445      1.99126209625764      0.55728849843880
  H          -2.13188435466014     -0.13912762117706     -1.64847289636726
  H          -3.31521440511469      0.20414199213770     -0.32034164593907
  Cl         -1.12377055445127      0.41366765692523      2.64341477858934
  Cl          0.96325482828920     -1.55554332051635      2.81191053923739
  Cl          1.64433612462096      1.22886196104613      2.51772173713476
  C           1.32475502558218     -2.23507890768068     -1.38372275085075
  H           1.86024537863735     -2.54144802916748     -0.48231483185127
  H           1.82708082078815     -1.37778007660466     -1.83978837115428
  H           1.30956504559279     -3.05907591385028     -2.09498646346288
  O           1.79348235166058      2.47488822416799     -0.49836451809137
  O           0.19044620656252      3.22424697592348      0.72008019939624
