23
Coordinates from ORCA-job NEB_reactant E -51.759909351890
  C           2.17746516915503      0.58202346509389     -0.10525937673727
  C           1.97463210447307      0.35707511825670     -1.42085104082803
  C           1.38295684092772      1.32010224721394      0.88336429033949
  H           3.04776592492844      0.08253699816171      0.29006708466016
  O           2.84017116978894     -0.49567385101267     -1.99683758381535
  C           1.22253998411762      4.46789548265632     -2.48172315228591
  C           1.49529268170267      3.18267960286105     -2.28885204482568
  C           0.47591301095288      2.10106026427203     -2.17752184285867
  O           1.03593727267639      0.80513403096614     -2.27603977839242
  N           2.27638086282526      5.43590018563302     -2.56798155640752
  H           0.23491752059014      4.89258444846537     -2.56915425005140
  H           2.53516027788888      2.88614020658551     -2.20605280108598
  H          -0.22671824855634      2.14844714524864     -3.01566423868659
  H          -0.10036500129079      2.21822713918158     -1.25267571927172
  Cl         -0.37103642751863      0.93877222085483      0.80105366006621
  Cl          1.92652615534109      0.90356980333413      2.52085897909426
  Cl          1.54234574032587      3.12497151881499      0.73989371588898
  C           2.71084020151962     -0.75785485011824     -3.38520724598614
  H           3.51849676705740     -1.44744287332280     -3.61923517241647
  H           2.81967766681020      0.15571699537893     -3.97409334948330
  H           1.74757059043680     -1.21941995882829     -3.61024564869614
  O           3.42161782793119      5.04535710446069     -2.51106526091417
  O           1.93831190791655      6.59139755584251     -2.70047766730634
