23
Coordinates from ORCA-job NEB E -36.039676036280
  C           0.52872857539881      0.86858549225107      0.60301230507479
  C          -0.68902671357210      0.15675297828569      0.63091425468195
  C           0.45084251044163      2.36792052081624      0.38881382558716
  H           1.21935393759527      0.63147206879574      1.40891903116147
  C          -0.89216390585922     -1.01052070377300      1.56257135005822
  C           1.33732677227102      0.27263129036815     -0.99439145553427
  C           0.36754040680653     -0.32291840295702     -1.81844942363301
  C          -0.89769220498115      0.35357404055086     -1.84142521100349
  O          -1.50004455199989      0.24036398732993     -0.38886277129753
  Br          2.83368819592254     -0.85032707034443     -0.51767862055125
  H           1.73182181563484      1.23930270726634     -1.28191493129872
  H           0.32845337898603     -1.40433995778073     -1.84318081685567
  H          -1.67083565844816     -0.12011358888936     -2.43800032418438
  H          -0.85489608273036      1.42496235676966     -2.03644867922215
  F           1.69515098308091      2.91463112041272      0.20126714078521
  H           0.04248281526505      2.83990329884159      1.29055521562357
  H          -0.15660756206761      2.65020805636417     -0.47548509377365
  C          -0.47170677351509     -2.33982010972497      0.92846654455728
  H          -1.95554401636657     -1.06035410343745      1.80576387568180
  H          -0.33065023239395     -0.84194069542691      2.48133373236857
  H          -1.03818515398388     -2.51749515644204      0.01761712630942
  H          -0.66771173260467     -3.15363897386653      1.62127478466555
  H           0.58967519712001     -2.33883915540972      0.69532814079913
