23
Coordinates from ORCA-job NEB_product E -36.094508393460
  C           2.47762091892840     -1.20080973725012     -1.16089249436327
  C           1.21130915817896     -2.04071136931768     -0.96786697914454
  C           2.07454983684062      0.26440514499787     -0.95773905107063
  H           3.21514241885801     -1.46399229539764     -0.39623897099107
  C           1.13652665295467     -2.79499105296232      0.33567811115589
  C           3.13295155172419     -1.35296713253362     -2.54007739948549
  C           2.27902523522886     -0.97675630176775     -3.69875922783035
  C           2.64469324998405     -0.07469563393408     -4.59165200509268
  O           0.32611443440258     -2.05554741287777     -1.78222884369169
  Br          3.69370320597986     -3.24394585542982     -2.76449936538010
  H           4.06907978900537     -0.78779621780448     -2.55088542010574
  H           1.33724550078448     -1.50060261963499     -3.77793357068957
  H           2.01518163056872      0.17924047701532     -5.42641197145562
  H           3.58441752809891      0.45015890892571     -4.52106721840856
  F           3.18773938069967      1.06426393348780     -0.95918131027564
  H           1.58208068406791      0.40856643264108      0.00965327025865
  H           1.42455693411843      0.60926497598703     -1.76774262325600
  C           2.04680926276216     -4.02600028261282      0.32410609026774
  H           0.10291480191842     -3.11131681185964      0.48462316778649
  H           1.42974229561859     -2.13063136031692      1.15171226519432
  H           1.79041301482195     -4.67844046616605     -0.50631580536766
  H           1.92151221894424     -4.57930133363611      1.25098487970762
  H           3.09297029551096     -3.74839398955302      0.22883447223790
