18
Coordinates from ORCA-job NEB_reactant E -40.468769652460
  C           1.48948361059990     -0.43858671102101     -0.28440769662549
  C           1.17952293780643     -1.30578997158816      0.67428063634803
  I           1.01612754001274     -0.47733838010079     -2.32538318760694
  H           2.02633180226821      0.46038790526999     -0.03901399496213
  C           1.54920851596046     -1.04250164057660      2.11255785386815
  C           2.18862051591037     -3.96517815368751     -2.20786716647814
  C           1.89004027138352     -3.71187456206265     -0.93567901981069
  C           0.51937347983299     -3.35242804939752     -0.45980795543767
  O           0.54059321741220     -2.49769133905340      0.67318321636076
  C           3.48750933095570     -4.33033643022803     -2.61430605701944
  H           1.44995582122602     -3.90328505544935     -2.99676963007951
  H           2.64922657674613     -3.78353397056907     -0.16669883107992
  H           0.02052834590934     -4.25154084970105     -0.07657501941960
  H          -0.09733553094289     -2.93712047295579     -1.26306511867705
  Br          2.26384341976536      0.70259866812549      2.51363352738000
  Br         -0.04037745423235     -1.31082621844941      3.21451882382128
  Br          2.88562891222952     -2.38830804109332      2.63626408224448
  N           4.54271868715635     -4.62194672746184     -2.95256446282614
