30
Coordinates from ORCA-job P E -37.580612477620
  C          -2.09366182641972      0.31481196117284     -2.08122628048706
  C          -0.25726163991534     -1.58336034785823     -1.39129221724955
  C          -1.69382563120446     -1.98563115852254     -1.49207640503430
  C          -2.59292466616287     -1.06496867425905     -1.80451111629732
  C          -1.13206944442672      0.80266897990522     -0.99759159750087
  C          -0.17472229484993     -0.31816887643896     -0.50754633533728
  H          -1.97249836164333     -3.00805204876197     -1.29254948352424
  H          -3.64806213839810     -1.26900233540236     -1.88711613730745
  Br         -3.58446523236064      1.59499057981369     -2.26822133148376
  H           0.34806445794979     -2.36401824755601     -0.93295408365039
  H          -1.60390740422664      0.33450707851896     -3.06121945551772
  H           0.13214409442779     -1.39906683820546     -2.39080481949857
  H          -1.71694581829534      1.15435336803174     -0.14519025830177
  H          -0.56943321116349     -0.65738837519202      0.45699058288264
  H          -0.56831918959618      1.65641348456990     -1.37498704610477
  N           1.19871456343462      0.07960955093369     -0.22528728554156
  C           1.92612830651133      0.92894320307114     -1.17460594995578
  C           3.42747997811000      0.86341305386287     -0.85858610093802
  C           1.75249446482789      0.52286703743424     -2.63655752506969
  C           1.32129964294615      0.61051733309651      1.12152739546835
  H           1.60319457248995      1.98423246997306     -1.07045779237089
  H           3.71970983033477     -0.17132328866682     -0.70109177689718
  H           3.68778049118654      1.44269111839608      0.02199198310425
  H           3.99608245583517      1.26316099933540     -1.69422066874848
  H           2.11577272011532     -0.48970427264384     -2.79000530832869
  H           2.34236459679307      1.19473486556247     -3.25713794183584
  H           0.72249661161638      0.59403580289477     -2.96900619888802
  H           0.79561155058428     -0.03835339696525      1.81924974976998
  H           0.91407118099619      1.62908359093392      1.21629426934249
  H           2.36634734050352      0.62817338296602      1.41773913530150
