30
Coordinates from ORCA-job R E -37.511740812410
  C          -1.84464481564658     -0.58897988223798     -3.00229020880653
  C          -0.22645978695385     -2.77901398662481     -1.72874500023626
  C          -1.29342775969131     -2.18263104262385     -1.20581156720138
  C          -1.99027116948850     -1.03780353742238     -1.75907650190925
  C          -1.11903402268985      2.01474115442565     -0.47219596613753
  C          -0.39783414306736      1.13003015436679      0.21281301051185
  H          -1.69398484613356     -2.54305321148365     -0.26736542315583
  H          -2.67376771468408     -0.53040748467597     -1.09321648612166
  Br         -2.76716067224578      0.92519028152606     -3.64468686649710
  H           0.23491099322502     -3.62435469803875     -1.24784642321577
  H          -1.21013210455623     -1.04135803771284     -3.74649341052347
  H           0.22928109056695     -2.44642319179082     -2.64577184405258
  H          -2.14961128082317      2.17864224263817     -0.21561929082244
  H          -0.88117155841709      0.56906694667742      1.00408992715548
  H          -0.73822981518921      2.61104837288900     -1.28048222882181
  N           0.94391234025859      0.84704096306214      0.11529528426066
  C           1.72790425947001      1.46768077273757     -0.93718624341242
  C           3.20062552938910      1.59045411764106     -0.54550552266511
  C           1.58348559351804      0.74166772959536     -2.27945345487415
  C           1.40430153472880     -0.41461098853058      0.64074151715120
  H           1.33056836910835      2.48196429908245     -1.04425209340143
  H           3.70403501852293      0.62746855157289     -0.58294990856206
  H           3.29195657449190      2.00229315824186      0.45653402624587
  H           3.70244180205199      2.25982426480720     -1.23964135498337
  H           2.01810943901937     -0.25410766505298     -2.22515829996743
  H           2.09126849320288      1.29758053921831     -3.06324584788824
  H           0.53182085276928      0.65033535459701     -2.53866558208479
  H           0.75158843058037     -0.72415233671399      1.45520744399498
  H           2.41382591536413     -0.31118344553346      1.03811765131323
  H           1.40230345331885     -1.21017939463687     -0.11567933529265
