30
Coordinates from ORCA-job TS E -37.498204361820
  C          -2.29857911189963      0.21997762104638     -1.19678113178794
  C          -1.16048966465707     -2.13683920667221     -0.03229443251322
  C          -2.49417064015361     -1.93778202385076     -0.13060112639862
  C          -3.08314647348843     -0.83823999683027     -0.78424770836867
  C          -1.50444090734283      1.01293624370987      0.49425757440521
  C          -0.56098409042140      0.17089867750568      1.05272844144454
  H          -3.16209362506792     -2.60295620198922      0.40153545124580
  H          -4.15007712145616     -0.69989222637488     -0.69356873429695
  Br         -3.18174100746528      1.70361409336862     -2.03681061078836
  H          -0.76861842648901     -2.94870630598774      0.55716270800833
  H          -1.34258880346255      0.05558238823539     -1.66969329496740
  H          -0.45894805179230     -1.63748591184458     -0.67253907771338
  H          -2.43331168984267      1.10335700891204      1.03321611516396
  H          -0.85716146284921     -0.49472740915464      1.84771741870565
  H          -1.18102065069990      1.92882489676261      0.02639278943436
  N           0.77362442742579      0.16816441515205      0.79464180592896
  C           1.36751541359396      0.91350359612723     -0.30164807386855
  C           2.24046502362111      2.05339380416456      0.23281706898335
  C           2.16401309843017      0.01375016953175     -1.24993057250166
  C           1.60823472278941     -0.76854474329053      1.50295713586806
  H           0.54951615380991      1.35614676242640     -0.87305755854970
  H           3.11075850621985      1.66969188881536      0.75936143256468
  H           1.66647936057661      2.67289478625100      0.91752393700294
  H           2.58596131134311      2.67248369119068     -0.59058732989170
  H           3.05886933010700     -0.37513849239175     -0.77186720205068
  H           2.46618224020209      0.58783736899251     -2.12209898649104
  H           1.55944120382856     -0.82492229529212     -1.58799972131240
  H           1.66028499875963     -1.73576884219502      0.99058766350973
  H           1.21008763548397     -0.93298475032292      2.50312245313393
  H           2.61593830089680     -0.36906900599547      1.59970356610077
