18
Coordinates from ORCA-job NEB_product E -36.258878847840
  C           1.62978480493995     -2.26028185916125      0.13898425250778
  C           1.30678330910366     -1.02702830783779      0.96071657073778
  N           1.37882987434839     -2.06367588647816     -1.26214672536838
  H           2.68973447879441     -2.51162753638120      0.28330978556107
  Br          1.84950637275679     -1.19116820739867      2.84270886644929
  C           0.79622498505574     -3.45650524223347      0.66589737562036
  C          -0.67717902293939     -3.24907108975089      0.51109170864496
  C          -1.47420221357583     -2.97078710756716      1.52577252573252
  O           0.79615255590396     -0.03054891319852      0.58933863624153
  N           1.26060178524992     -4.66320997019568     -0.09976326591543
  H           1.06105986006976     -3.64028576696814      1.71343806613415
  H          -1.05734836569631     -3.34221431900973     -0.49555806066495
  H          -1.10912238475963     -2.89020255359798      2.53718175330258
  H          -2.52779119833309     -2.80793560342878      1.38491087082860
  H           2.06273522951084     -1.45229136448425     -1.68891837594064
  H           0.45551324989149     -1.67927398070390     -1.42784089126113
  O           0.42860164438294     -5.32974549920657     -0.64926999757298
  O           2.44431503529641     -4.87754679239785     -0.07665309503711
