18
Coordinates from ORCA-job NEB_reactant E -36.246553029660
  C           1.82414979932713     -0.02213648852913      0.07661021010844
  C           1.72814090423548     -1.06066957592905      0.91022149999922
  N           1.63070383452970     -0.10620629148750     -1.28115315803360
  H           2.14791640019952      0.93517854409400      0.45355691131006
  Br          2.19691495506602     -0.82420445863599      2.76564913360746
  C          -0.92801963779794     -5.02702495824112      0.72101668414183
  C           0.20473953782947     -4.33488700531381      0.69842081070012
  C           0.36853381616988     -2.95575387341309      1.22172489178485
  O           1.43100625963578     -2.32884456346371      0.52133519045827
  N          -0.98924852744340     -6.36539560033315      0.21095403826468
  H          -1.87013517757451     -4.67221202766147      1.11029469508692
  H           1.09568149061420     -4.78587325596258      0.27799394694777
  H           0.62431599912196     -3.01074386543749      2.29423153372869
  H          -0.55999410406023     -2.37445363946848      1.12887574629046
  H           1.31214025150702      0.72844966600429     -1.74449504115566
  H           1.21066600156648     -0.96378225776644     -1.60581281774931
  O           0.02071808781581     -6.85763284351906     -0.24075730977508
  O          -2.06912989074237     -6.91310750493624      0.26563303428488
