20
Coordinates from ORCA-job NEB E -41.797209481550
  C           0.44095119516339      0.96012646065748     -0.03196714692498
  C          -0.84504303327752      0.56935965766609      0.37387095928149
  C           0.61474528043428      1.51037805818438     -1.42518809272248
  H           1.02293799894585      1.49273006184987      0.71378543194909
  C          -1.12718488456189      0.58292057312356      1.87979052020876
  C           1.32344253425641     -0.80420110954635     -0.17276650137519
  C           0.33684527537322     -1.78985825357489     -0.06106673538438
  C          -0.79410437263525     -1.66692873179073     -0.88230710589810
  O          -1.56931657479763     -0.21345912455957     -0.33157164617667
  Cl          2.59367858915184     -0.79726031560764      1.01534916667709
  H           1.71317482752495     -0.58778882140631     -1.15899698415262
  H           0.22128407881186     -2.28463542865546      0.89433457037014
  H          -1.60137594708720     -2.37208428070890     -0.74610455301012
  H          -0.64383786248769     -1.36653796817287     -1.91171857015854
  H           0.03890860409911      0.94272413066293     -2.15041813970748
  H           1.66116207142162      1.53438199717120     -1.71718461393670
  H           0.24471829961212      2.53553275737820     -1.42943335603818
  F          -2.42633719737888      0.45807626734850      2.15464819991839
  F          -0.49987763404933     -0.42225437049942      2.52875063516872
  F          -0.70477124851926      1.71877844047992      2.45819396191176
