20
Coordinates from ORCA-job NEB_reactant E -41.836083520140
  C           1.49662596633860     -0.08231692841526      0.09534161892998
  C           1.50139610471669     -1.32684734364058      0.56597402762400
  C           1.47989753622394      0.27025219159047     -1.34837653952066
  H           1.48786816480790      0.73629557977363      0.80058120537551
  C           1.50700624676117     -1.56253200918034      2.06676493405294
  C           3.26367991835954     -4.78463631748322      1.07567332879362
  C           3.47290763746930     -3.56976077947370      0.59410993282906
  C           2.70197959128763     -3.03687815187837     -0.57929957919668
  O           1.44655070943151     -2.45224451045004     -0.21217017246160
  Cl          4.09498287950121     -5.40253374097811      2.43597160634680
  H           2.55353346846791     -5.47414164835611      0.64423380480746
  H           4.17649033649202     -2.90153656058731      1.06906520354504
  H           2.41724254647906     -3.84489990923767     -1.25577832819877
  H           3.30461555092088     -2.29581623677920     -1.11863037226823
  H           1.38872497128440     -0.62012377746106     -1.96377145850608
  H           2.39226982773183      0.80472280387450     -1.61129688434391
  H           0.64095932021498      0.93326470513755     -1.55185511134431
  F           0.69716163862581     -0.70649519154449      2.71371053102039
  F           1.12261246501557     -2.79363417882857      2.40305642865261
  F           2.73169511987005     -1.37673799608212      2.60779582386283
