20
Coordinates from ORCA-job NEB_product E -41.839944769870
  C           2.54262263520222     -1.43169434110931      0.57216562395371
  C           1.36975270622576     -1.58371814392082      1.51051881461785
  C           2.04249025948703     -0.73799551673350     -0.70317206605596
  H           3.30491895850005     -0.80894294214662      1.04991560106730
  C           1.41410896836407     -0.56585070367225      2.69226590258168
  C           3.17273046720866     -2.79373395118265      0.23924111417802
  C           2.28870178434722     -3.72685104533542     -0.51447438017151
  C           2.64057955620698     -4.28527053962871     -1.65858637307041
  O           0.44521980499862     -2.33020664332817      1.40114349316909
  Cl          3.62688037774311     -3.57987945610005      1.80687483621548
  H           4.11092973049216     -2.63141407077789     -0.29747118272153
  H           1.33764553088567     -3.94666092481460     -0.05311988852050
  H           1.98942315306933     -4.96757246331012     -2.17598541047185
  H           3.59209336246094     -4.08438573213688     -2.12369485778594
  H           1.25396988389436     -1.32562487358345     -1.16588846407588
  H           2.86438068901469     -0.63705195866874     -1.40674383708397
  H           1.65911614757884      0.25202227684739     -0.46940952608225
  F           0.35957299938294     -0.66445124266601      3.49449165842093
  F           2.51425961769378     -0.71923674676681      3.43924795194715
  F           1.44320336724357      0.69351901903459      2.21638098988858
