23
Coordinates from ORCA-job NEB E -52.277808860460
  C           0.54024337220117      0.98294561543839     -0.06187428985260
  C          -0.59897562328057      1.64413333699864      0.51031022067494
  C           0.56825786603662      0.95257261607954     -1.57753045394400
  H           1.49953314576714      1.36026922674944      0.29924297938807
  N          -0.35256935133727      2.29715695665710      1.80079845361705
  C           0.42239177507876     -0.68454579161860      0.55498046238396
  C          -0.92514223245172     -1.07313867971067      0.24126702178569
  C          -1.99642968468999     -0.36940880694194      0.81127279056662
  O          -1.77626938098746      1.24124414770349      0.28463117805633
  O           1.50496837248231     -1.38315785429325      0.10265772799101
  H           0.60369226485275     -0.47475920802452      1.61256658841045
  H          -1.10465415474366     -1.63410927186952     -0.66247883812430
  H          -1.97649601657775     -0.14470985272296      1.87284851798618
  H          -2.98574085644158     -0.59979751900345      0.44031247886332
  F           1.71315191186604      0.44841465786262     -2.05301022758030
  F          -0.41924797134854      0.24848523414642     -2.14299027638364
  F           0.47632708703564      2.19617210056364     -2.06567766342685
  O          -1.29019346685616      2.36236634147822      2.56279249159628
  O           0.77052322611654      2.70956139352017      2.01060596170115
  C           1.34200418110312     -2.33066540390365     -0.93803758171135
  H           0.74954510525441     -3.18300057344493     -0.59191353215506
  H           2.35076439702324     -2.65909923742228     -1.17749706066434
  H           0.88431603389697     -1.90692942824188     -1.83327694917858
