23
Coordinates from ORCA-job NEB_reactant E -52.305826812730
  C           1.94385121553726     -0.16533394664728     -0.00348436147397
  C           1.60179394521494     -0.69722489707189      1.17667425873618
  C           1.46497303373187     -0.51674859861773     -1.36999483126683
  H           2.63531656961398      0.66577873727591      0.01642519559806
  N           2.23898972761858     -0.04680486363099      2.37672786521649
  C           1.57664635852659     -4.81148881587570      1.38322398287653
  C           1.44295032930079     -3.75694259860312      0.58084590004230
  C           0.35760251552421     -2.75213934543179      0.79095114885392
  O           0.82060869157503     -1.65478714495358      1.60702399561729
  O           2.49547935096161     -5.78433898123655      1.33685290944161
  H           0.88491774087167     -4.99052458503542      2.19668149286834
  H           2.13260659874794     -3.56219927611062     -0.22367815340976
  H          -0.45407320141948     -3.17321045405232      1.38638724252599
  H          -0.04315496887583     -2.38313090215970     -0.15367412491267
  F           1.85651910894557     -1.73949506233615     -1.78530013557880
  F           0.12300037579151     -0.50471297833899     -1.48929446744088
  F           1.93201029843749      0.34828137561294     -2.27325259842418
  O           2.05396224919512     -0.58723257966667      3.43031673321528
  O           2.88124101696237      0.95357167128716      2.18601826000668
  C           3.48911881487476     -5.71209839283406      0.33644630736853
  H           4.11859873680066     -6.58868907824122      0.47526212753985
  H           4.09282290448855     -4.80657748953501      0.44501043611799
  H           3.04431858757484     -5.73265179379721     -0.66236918351796
