23
Coordinates from ORCA-job NEB_product E -52.299662979610
  C           2.01647004634721     -1.54160370599144      0.27474410819086
  C           2.30931891986202     -0.66376832705757      1.44963167040496
  C           1.08484162157091     -0.84727415860180     -0.71457491210908
  H           2.94690278661965     -1.79971596339622     -0.24325152475451
  N           3.67353686838556     -1.01823282245466      2.09310901940049
  C           1.35504160424971     -2.85511134757397      0.85738331136320
  C           1.00138062694456     -3.78013091497212     -0.27232373672083
  C          -0.22074597887183     -4.23973325046448     -0.46266540290405
  O           1.64911132747788      0.16968764392584      1.96374952961418
  O           2.18173271869130     -3.40237166986877      1.85254734702943
  H           0.44333126748709     -2.55440160059623      1.38917111190655
  H           1.81060987130116     -4.05143074914271     -0.93526726152608
  H          -1.03811712517871     -3.96773520438122      0.18399961080859
  H          -0.44958039428190     -4.90391682377970     -1.27755666755666
  F           1.04217012600304     -1.49824024584243     -1.88537435583500
  F          -0.17137229211781     -0.75664985945020     -0.27719843141461
  F           1.49987013033562      0.39424268175876     -0.99138294096918
  O           3.78512227855628     -0.74752267548011      3.25240371652379
  O           4.49958363065263     -1.51481750805859      1.36623297392308
  C           3.20496287808475     -4.29455096459312      1.44440624048169
  H           3.73443220594090     -4.54889783805680      2.36005610611310
  H           3.90590972798735     -3.82705936554434      0.74740886570922
  H           2.78708715395264     -5.20286533037811      1.00375162232083
