19
Coordinates from ORCA-job TS E -36.416207510740
  C          -1.01649418512550      0.77548788090315     -1.38950269720988
  C           0.35079079898690     -1.56585973490824     -0.48972156601381
  C          -0.97768957235148     -1.55427665861043     -0.75441805985476
  C          -1.65387393045865     -0.41501547223130     -1.24237813437430
  C          -0.45440935345761      1.09859840901989      0.75316800973691
  C           0.40035580838045      0.12145008084290      1.16246388640095
  H          -1.59151260965778     -2.38594602295351     -0.43728186708262
  H          -2.73241645463273     -0.45618318625110     -1.29919442248348
  I          -2.08548706588627      2.49724473489337     -1.97582583793448
  H           0.79732633892267     -2.42360428369538     -0.01599604334662
  H           0.03309395769457      0.86176258345731     -1.60223190204852
  H           1.03319622211491     -0.90108112115469     -0.98486045681823
  H          -1.48590033310151      1.06177806651415      1.05336171605182
  H           0.06666623825024     -0.68506590251975      1.79425277544462
  H          -0.07169460798129      2.05838445817587      0.45226347933952
  C           1.86917264864606      0.37173245643179      1.19803802803499
  Cl          2.46700856642109      1.18541871680483     -0.26461289981030
  Cl          2.23609354281629      1.46363230031285      2.59328218442048
  Cl          2.81577399041964     -1.10845730503170      1.44919380754772
