17
Coordinates from ORCA-job NEB E -42.222157194220
  C           0.99290877354269      0.55509610995679     -0.10958242347403
  C           0.01038378908342      1.40680819860614      0.41194806750227
  C           0.98936078983553      0.36003164799510     -1.61209132589709
  H           2.01079830188944      0.67576896556131      0.24971167603523
  Br          0.45787852640913      2.22286600136035      2.12790333988844
  C           0.36715709562541     -1.14352378448444      0.66822044892854
  C          -0.98163103606141     -1.17299963800811      0.30141356971754
  C          -1.83592289146150     -0.15359177073146      0.78213518027766
  O          -1.21438289305380      1.27709509080640      0.15539768736622
  Cl          1.41995856018880     -2.38355910550973      0.05835742355941
  H           0.63219683028346     -0.87356871467647      1.68678248326084
  H          -1.26436282282895     -1.71091066431612     -0.59040439873031
  H          -1.76976826857804      0.10458195564294      1.83567614075859
  H          -2.84621294925000     -0.13803500194941      0.39615811761864
  F           1.98746172182895     -0.42841258283054     -2.01951248139167
  F          -0.13768203411832     -0.14161539028453     -2.11842130023671
  F           1.18185850666521      1.54396868286177     -2.22369220518358
