17
Coordinates from ORCA-job NEB_reactant E -42.252545408350
  C           1.66426525679605      0.03890748696091     -0.08520378395702
  C           0.96183994462192     -0.57117409230502      0.87526630998567
  C           2.17402094267523     -0.72886929445582     -1.25876991869541
  H           1.89375482134410      1.08777962062693     -0.05536949694149
  Br          0.34075464490773      0.47843289172734      2.33915337717396
  C           0.06533103916357     -4.90834987074406      2.29182323104514
  C          -0.26147020696143     -3.91754731025456      1.47818751883032
  C          -0.11312580380391     -2.47771815770380      1.85354455769741
  O           0.69061482174441     -1.85898051927384      0.85318066461262
  Cl         -0.12459641525102     -6.55439096394131      1.87024356808544
  H           0.45482599826382     -4.75477176296880      3.28759804361126
  H          -0.63663774872569     -4.10421503466392      0.48366329303374
  H           0.36283315654945     -2.37564982887966      2.83602846989850
  H          -1.09913478659487     -1.99273583971003      1.87954037912052
  F           3.05877414460735     -1.68446528351165     -0.91932060504948
  F           1.19860986320892     -1.35699078794775     -1.94040014464388
  F           2.79514032745435      0.07193874704505     -2.13266546380732
