17
Coordinates from ORCA-job NEB_product E -42.262793291640
  C           1.56088672071200     -1.58465139774919      0.52254602238751
  C           0.51256622950857     -0.51205369254566      0.68876458754683
  C           1.67782723885493     -1.94207031021873     -0.96771569447588
  H           2.54470532108831     -1.20433879286946      0.82121763678141
  Br          0.70116823814243      0.39231203646180      2.40361479247699
  C           1.16717614543415     -2.75198767003921      1.46287310308831
  C          -0.25844059063532     -3.18066586667237      1.31392361640067
  C          -1.13262938780073     -3.08581327855628      2.29939612990387
  O          -0.36545975101055     -0.21391443988139     -0.03496609488726
  Cl          2.25332198148268     -4.16016680025650      1.18157709274857
  H           1.35642659266440     -2.43017499928600      2.49166576685175
  H          -0.53837122838454     -3.59210857275056      0.35616384770469
  H          -0.86699080779840     -2.68536892591005      3.26451120995211
  H          -2.15259367886913     -3.40301016914644      2.17461237968356
  F           2.76808319452700     -2.66681016786703     -1.22336935331808
  F           0.63494546512345     -2.60927902202042     -1.45529865111383
  F           1.80227831696075     -0.82139793069251     -1.69581639173123
