17
Coordinates from ORCA-job NEB E -43.051631366170
  C           1.04087283251953      0.03693747352701     -0.54680633587374
  C           0.17418691638270      0.99027183792089     -1.08066437116561
  C           0.87505909057521     -1.39973281972335     -0.97676230970680
  H           2.09072859367346      0.30282244149721     -0.47242148259658
  F           0.67691289362901      2.26480736922667     -1.10139499835643
  C           0.34649090911276      0.06661189367231      1.35048384927123
  C          -1.02150361241242     -0.09146663104541      1.17525303710794
  C          -1.73151841771834      0.90239982190728      0.46756213990514
  O          -1.07445442137175      0.88604113818297     -1.10372291082703
  F           1.03187224794172     -0.91109881879379      1.95130620770467
  H           0.78594950348637      1.03371873296183      1.58304579463689
  H          -1.42646049696497     -1.09014550598895      1.23789353174935
  H          -1.52227187777142      1.94046751736271      0.70235582520757
  H          -2.77257222186955      0.70459882218343      0.25429136038941
  F           1.66480568916927     -2.22822400568902     -0.28999570919367
  F          -0.36840092072212     -1.87435507779448     -0.88111347011642
  F           1.23030329234054     -1.53365418940730     -2.26931015813592
