17
Coordinates from ORCA-job NEB_reactant E -43.083986246220
  C           1.71176592825852      0.00489814531916     -0.04588880387426
  C           1.04821618408565      0.65662041956962      0.91080910809352
  C           2.05696724115103     -1.43510832772860      0.10520795604400
  H           2.02053585692996      0.49927389692749     -0.94750871099709
  F           0.75256722147980      1.95296636116886      0.73702651560907
  C          -0.13666167784685      0.39150028276246      5.37432724855198
  C          -0.45051866064276      0.08203956482234      4.13070444816390
  C          -0.09388575495346      0.94166524970679      2.96464210693310
  O           0.64486996296671      0.12928413303947      2.04502743430671
  F          -0.48774215819011     -0.38665830200539      6.40047727237393
  H           0.39154405465689      1.27718913245719      5.69948637223030
  H          -0.97172811525026     -0.83625121611017      3.90800313072891
  H           0.51230878420082      1.79978614015852      3.27557977622411
  H          -1.00351710612045      1.30778069210603      2.47010120082579
  F           2.88827609736443     -1.67460110807548      1.13665691322996
  F           0.98189000422353     -2.21646576079946      0.31406981359759
  F           2.66511213768655     -1.90931930331883     -0.98852178204153
