17
Coordinates from ORCA-job NEB_product E -43.094436720150
  C           1.70417705387737      0.10737013683721      1.65811638487538
  C           1.13881617401785      1.11606692142670      0.69111274150727
  C           1.31856215171199     -1.31027669504926      1.22264498587499
  H           2.80083454490112      0.16817201585747      1.62938850298697
  F           1.62516779670370      2.34984847368756      0.99251685644805
  C           1.26321795239448      0.44325895691301      3.11281534537880
  C          -0.16569102913109      0.07560064325563      3.38669420578486
  C          -1.17617690601723      0.88973367138861      3.15148030657222
  O           0.39175097650004      0.97860612909428     -0.20249014154557
  F           2.09999509760323     -0.22962892559324      3.96739132771598
  H           1.44545757264560      1.51244335440180      3.28855184643554
  H          -0.30830038909098     -0.91674352880730      3.78812545742690
  H          -1.03407690157082      1.88151175225489      2.75337434067853
  H          -2.19061881112421      0.59157664044517      3.34406442741391
  F           1.74417114803385     -2.23345211778049      2.08612811105813
  F           0.00262437430811     -1.48350121220073      1.08731825700620
  F           1.87708919423699     -1.60278621613130      0.04066704438183
