20
Coordinates from ORCA-job NEB E -52.121483404700
  C          -0.12520146522509     -0.70772770157813     -0.63835451065866
  C           0.71264269973778      0.43393275809952     -0.65482968635085
  C           0.27063974458797     -2.15279136031428     -0.53870807582939
  H          -0.87488154337642     -0.60254253220939     -1.42044942337636
  C           2.06523149632678      0.58824690960256     -0.00174197219073
  C          -1.41240627445940     -0.28998586984720      0.80319872982514
  C          -1.31237716866362      1.09025590911682      1.02618456559599
  C          -1.34595609648496      1.94115877508305     -0.08082421923198
  O           0.13788085422023      1.53398357861516     -0.94383032957931
  F          -1.10911240590283     -1.08244457059328      1.83773359198803
  H          -2.25554438527049     -0.70335382092268      0.25716992930389
  H          -0.78378463656723      1.40425955650767      1.91637227316633
  H          -1.17840655142178      2.99710843075645      0.07492324927483
  H          -2.02744644284606      1.71384304858724     -0.89040941489337
  Cl          1.26842486983718     -2.59320350774044      0.84660965765883
  Cl         -1.21019949802924     -3.16195125324003     -0.48891734931493
  Cl          1.13250774125128     -2.60370808217761     -2.05857060478411
  Br          3.42451639891015     -0.61929749907267     -0.65676438847585
  Br          2.69231951253247      2.39256870329007     -0.34975525731286
  Br          1.93115315084330      0.42164852803718      1.96096323518537
