20
Coordinates from ORCA-job NEB_reactant E -52.159910624660
  C           1.38929907446387     -0.21521083301903      0.61727749873889
  C           1.92498993670488      0.62455718963990      1.51540981998355
  C           1.98507968561062     -1.12902651178755     -0.38671872588003
  H           0.31128765795265     -0.28459803806094      0.62166289785854
  C           3.37157407704224      0.94978176099562      1.76803062887732
  C          -1.48521788995429      2.10549049575612      4.29066834217051
  C          -0.71125082663548      2.40857921025833      3.26567812832886
  C          -0.23776780894512      1.39190635724040      2.27762814903495
  O           1.18155923932223      1.39120810786475      2.33534542371238
  F          -1.90432238232748      3.03284865136516      5.15139924576227
  H          -1.87378117566795      1.12462444925437      4.52862625193603
  H          -0.36532641161552      3.42079114897807      3.12297567767148
  H          -0.56125414303610      1.66937526043550      1.26481633090705
  H          -0.62635558749905      0.39766364814539      2.52919168792006
  Cl          2.40831582419587     -2.70869431351992      0.37306074962682
  Cl          0.74491139953345     -1.47031463249652     -1.63289127586700
  Cl          3.40498166173637     -0.49755141657363     -1.23780486686347
  Br          4.56275274576010     -0.56859167317546      1.78603848831289
  Br          3.97322644905718      2.26585081623001      0.44224251035393
  Br          3.56289847430154      1.79731032246945      3.50596303741495
