18
Coordinates from ORCA-job NEB_product E -38.209167291940
  C           1.33053967161599     -1.39777139410250      0.17376453678964
  C           2.63742829336202     -1.24952764397154      0.95666140876793
  C           1.59211207002181     -1.16877896538128     -1.32055138408915
  H           0.66853272377354     -0.57620724684716      0.48770076980263
  C           2.48648002924850     -1.58083055120600      2.36438256306765
  C           0.63431570304955     -2.71849619891642      0.52488837830711
  C          -0.51290181944504     -3.05994416282682     -0.35740773829918
  C          -1.73603038118444     -3.24245474396320      0.10717796070380
  O           3.66608957657164     -0.84524154368363      0.49028020289390
  I           2.11235145020423     -4.34805342506497      0.50476252603463
  H           0.31088062423687     -2.67703557494517      1.56749869715580
  H          -0.29906280089993     -3.17027034035624     -1.41022210451239
  H          -1.96994215424809     -3.15157318602038      1.15583284845442
  H          -2.55315598320747     -3.48735117256366     -0.54766721523546
  F           1.90848917030351     -2.30156790090447     -1.97621619381959
  F           0.47647691557035     -0.68323080337451     -1.91806029492601
  H           2.40661580006949     -0.44485478086462     -1.48095080645506
  N           2.35588111095748     -1.77981036500744      3.48342584535932
