24
Coordinates from ORCA-job NEB E -43.014454482800
  C           0.05679464616596      0.81450065508436     -0.54880402835646
  C          -0.66836274778805      1.16194246065208      0.67279543633461
  C          -0.51082519198226      1.49937853874101     -1.78664384189799
  H           1.12318465859406      1.03827696741984     -0.46118001506628
  C          -0.00151450560034      1.75828997670202      1.78747509607167
  C          -0.04361760161048     -0.84733206001222     -0.84973292740915
  C          -0.61505268755995     -1.48275544392646      0.31749915341965
  C          -1.90703092169842     -0.99878886128021      0.67190176453965
  O          -1.80813553851267      0.59647127447142      0.91172228393575
  O           1.16694663772644     -1.25039407689501     -1.37472658105942
  H          -0.75019549352788     -0.88034079343303     -1.68616943412238
  H           0.02711207611985     -1.88468647927660      1.08363559074076
  H          -2.30877829586667     -1.35829985202799      1.61373680956409
  H          -2.65060613566769     -1.01043834971669     -0.12303174947552
  H          -1.58686166214938      1.35353589623641     -1.85154091348900
  H          -0.03371737969532      1.10947510873546     -2.68161537004851
  H          -0.30939331648572      2.56782528655057     -1.72553048370493
  Br          1.31461775931018      3.06920330820906      1.40836856328884
  Br         -1.14667418065457      2.27378709571477      3.20812994589629
  Br          1.27949019604652     -0.01607140318695      2.76856391441266
  C           2.14254188940752     -1.77419400753900     -0.49423058822119
  H           1.84566868289037     -2.75682559220475     -0.11666076432591
  H           2.33769296623761     -1.10628136125167      0.34670932310032
  H           3.04671614630087     -1.87627828776643     -1.09067118412754
