24
Coordinates from ORCA-job NEB_product E -43.055359060280
  C           2.20821647817274     -1.50736475021176     -0.23723358093566
  C           1.17795098487752     -0.87309697025352      0.64213925164042
  C           2.31802690392478     -0.71299055802744     -1.54260566489861
  H           3.18357210925504     -1.55375310812352      0.25499385382850
  C           1.67354275582456     -0.26835873983587      1.95679059313930
  C           1.71243204988159     -2.96008798500917     -0.55891408411201
  C           1.49053613278420     -3.70892254056364      0.72555312679659
  C           0.29279098899361     -3.98739061786575      1.20515398662160
  O           0.01426085723187     -0.77442129459875      0.37236123365773
  O           2.56234694227304     -3.59145957119716     -1.48370159448702
  H           0.76046384609698     -2.85941617834401     -1.09314660112429
  H           2.37983055463749     -3.99106840471652      1.27209446985528
  H           0.16672660806331     -4.49595868058515      2.14584304752699
  H          -0.60790414282066     -3.71019879005696      0.68256226011886
  H           1.32623338778776     -0.51477839825276     -1.94234156186509
  H           2.87271380944861     -1.30524955133317     -2.26606576578913
  H           2.83349424924450      0.23139073429471     -1.38294000257109
  Br          2.81913031429534      1.23869528552451      1.48035578034926
  Br          0.17286532116492      0.36253270253191      2.99661710102907
  Br          2.70492225556912     -1.51683070431390      3.01798997809215
  C           3.77681911638645     -4.12605412597885     -1.00295842322908
  H           3.61317036749407     -5.03128232514941     -0.41025651576938
  H           4.34733712067305     -3.40432797640316     -0.41090860354425
  H           4.34972098874011     -4.38510745153067     -1.89178228433015
