24
Coordinates from ORCA-job NEB_reactant E -43.056902878150
  C           1.66483953494024      0.00827536606116     -0.49077884414782
  C           1.58514435703739     -0.76533317737296      0.59017779349234
  C           0.61913464144002      0.11958098553431     -1.54330309271010
  H           2.54442733369519      0.62364238880283     -0.62452253279358
  C           2.67402171088431     -0.73061552799461      1.63297761852419
  C           2.49978547933785     -3.85092621397679     -0.62570642722018
  C           1.56116272000532     -3.71567801287439      0.30776397610339
  C           0.40397372830944     -2.78685453573850      0.13012526416494
  O           0.54400832286802     -1.58476790888627      0.90920508046686
  O           3.60699319124462     -4.61001703466351     -0.60194078466800
  H           2.43350227514119     -3.32677414967720     -1.57219733112421
  H           1.61819719893918     -4.22427548943455      1.25683080111206
  H          -0.51804331134791     -3.22617726929372      0.51598352682550
  H           0.27926579264823     -2.53095967025500     -0.92689115097784
  H           0.93416455748502     -0.40110424331120     -2.44863780517138
  H           0.47729184121860      1.16773117056330     -1.80019917084345
  H          -0.32706577728643     -0.29262602850078     -1.20222364678257
  Br          2.97685534973953      1.08859567321200      2.29428772145163
  Br          2.22873222279680     -1.84001906322450      3.14191413551078
  Br          4.38651020297091     -1.36820217171705      0.89181528533571
  C           3.88285018154954     -5.33314350082215      0.57800365347521
  H           4.82320630777443     -5.84969339025671      0.39847274165187
  H           3.09460517701816     -6.06221107435496      0.78715172642256
  H           3.99333696159036     -4.66324712181876      1.43529146190211
