19
Coordinates from ORCA-job P E -32.436812865730
  C          -1.23547491985165      0.50225455004972     -2.49260605455092
  C          -0.46474572347724     -1.65194037777100     -0.56972105437291
  C          -1.20108420669293     -1.90385305342121     -1.84878495742702
  C          -1.53607344614808     -0.95307938404327     -2.70633082982363
  C          -0.88080426415085      0.79305327754521     -1.02511631271214
  C           0.11275205483567     -0.24060352882180     -0.50683120952090
  H          -1.43824368511330     -2.93753648067115     -2.05655995071770
  H          -2.02622737980593     -1.20191297025427     -3.63837695140277
  C          -2.42300623047037      1.38942533317631     -2.86071643877175
  H          -1.13388791787165     -1.80558102608224      0.28187172880789
  H          -0.39126922787366      0.79736609195584     -3.12585284172277
  H           0.35213339560031     -2.37170172443057     -0.47701500202571
  H          -1.77431776010591      0.74780147107380     -0.39806665788522
  H           0.43174880227815      0.00415953141879      0.51478834982594
  H          -0.45467210731757      1.79379036004794     -0.94654426606530
  F           1.26147237000427     -0.18795469187728     -1.27350385268004
  O          -2.31989180050975      2.47024168830158     -3.35936006552202
  O          -3.62281273274043      0.88205962339186     -2.53150877833219
  H          -3.54533522058906     -0.01607868958827     -2.17513485510081
