19
Coordinates from ORCA-job R E -32.341240656250
  C          -1.46273849379917     -0.25299426383612     -2.78779078974817
  C          -0.11188147046188     -2.76047426906215     -1.80550379920006
  C          -1.32412897848264     -2.68826850896168     -2.35043664419013
  C          -2.02806897458594     -1.46128993395685     -2.66697131469550
  C          -0.55091298632299      2.22433642584242      0.22053419133058
  C           0.10762582412476      1.17640816442224      0.66300490810293
  H          -1.86788352204218     -3.59857659790375     -2.57324846829495
  H          -3.09842895313842     -1.58724540695023     -2.80493184979596
  C          -2.17482049365961      1.00652141651296     -3.08021517252472
  H           0.35358789048876     -3.70879982011575     -1.60060164780686
  H          -0.40534545806898     -0.11963396241135     -2.61812561975845
  H           0.44090181907079     -1.88452983694126     -1.51841287782992
  H          -0.92132209459383      2.95733764056348      0.91493888248248
  H           0.33488320492811      0.94303422751197      1.69385678044843
  H          -0.74232391739783      2.37633462097821     -0.82908777399686
  F           0.58315464212038      0.23115654348936     -0.17154525997712
  O          -1.70217002618743      2.08718349794649     -2.84187684697645
  O          -3.40180517055744      0.90985302494866     -3.62897435256766
  H          -3.65470284143448     -0.00542296207665     -3.80397234500161
