19
Coordinates from ORCA-job TS E -32.325577102860
  C          -0.20291803148647      0.35563183597396     -1.07353781453175
  C           1.21426754036060     -1.64723525680870      0.39132025992739
  C          -0.06536469813548     -1.83000207859781     -0.02572118501686
  C          -0.76708245527176     -0.84966343962657     -0.75526468337208
  C           0.20076105404054      1.11495025179862      1.05157137141794
  C           1.00853232720352      0.23362449190114      1.68261713108824
  H          -0.63790440804633     -2.66128816575675      0.36258311396594
  H          -1.82781043848576     -1.01903176140226     -0.90302033271997
  C          -0.93719208040911      1.48280762376370     -1.69213900089730
  H           1.67356994784375     -2.35797580252477      1.05897119932787
  H           0.86413740401247      0.43627232434342     -1.20627106838836
  H           1.89866425882108     -1.01678871401635     -0.14755869495401
  H          -0.84927181096025      1.11504628911237      1.27327897899095
  H           0.70297031121689     -0.45247406103376      2.45676209845607
  H           0.61594550089819      1.98923209788537      0.58361684510384
  F           2.34172210889821      0.43831295569376      1.68989096700838
  O          -0.38983313017980      2.33731320511239     -2.33527315303687
  O          -2.26686803513780      1.53462191159746     -1.47650753384175
  H          -2.57632536518250      0.79664629258480     -0.93531849852766
