20
Coordinates from ORCA-job NEB E -44.134657278940
  C           0.02888689724542      0.63746783968565     -0.89593014814239
  C           1.01319808135629      0.18873219540522     -0.09782680150661
  C           0.01589451838720      0.59080609428997     -2.36739452062411
  H          -0.86643750395508      1.05137183833368     -0.45822859557440
  C           2.31399648245188     -0.40244606340214     -0.59129388799839
  C          -1.72393945934014     -1.25358248045263      0.98111589962482
  C          -1.31829583537318     -0.31873282683063      1.70824248040730
  C          -0.17593372408140      0.59661830856232      1.94214197193979
  O           0.98801731378508      0.21753000393394      1.24163669697644
  F          -3.51288002842831     -1.06832230964961      2.25049868949558
  H          -2.15164009926369     -2.03545918898995      0.41650088233149
  H          -2.30971601924255     -0.24704689481369      2.41922370861051
  H           0.11510037385398      0.56143346413627      2.99607158975573
  H          -0.47489365153311      1.62466945707604      1.69135230117007
  Br         -1.56152144162489      1.50132354963964     -3.06269630902842
  Br          1.58810828029976      1.44652131814714     -3.20681889893100
  Br         -0.05496402572081     -1.28313077736820     -3.05196789511044
  F           2.93803310017173     -1.07544018523146      0.41387187328093
  H           2.99980043515087      0.38709486337235     -0.92477934332244
  H           2.14918630586097     -1.11940820584391     -1.40371969335445
