20
Coordinates from ORCA-job NEB_reactant E -44.265626603670
  C           1.30896412815609     -0.61925528779199      0.06944152346604
  C           1.91935517547770     -1.25204722756818      1.08926936572049
  C           1.94829117537370     -0.14310680189224     -1.16500701190639
  H           0.25181709282755     -0.41247294893451      0.13355217348051
  C           3.38899821422688     -1.60548819343526      1.11103944394180
  C          -0.98089910012575     -1.28780706994488      4.69759364740315
  C          -0.43470045234102     -2.00182382288200      3.73217537430924
  C          -0.07113553942975     -1.42879762374123      2.40094457998750
  O           1.31392969949894     -1.66569001357656      2.20305551037548
  F          -1.30894564945118     -1.83094097043702      5.87222319343039
  H          -1.23830098969284     -0.23866044358503      4.64999038313471
  H          -0.20386426579145     -3.04474855551531      3.88476041329526
  H          -0.28094006002324     -0.35225973581650      2.37203544784294
  H          -0.64546280409712     -1.93116479719428      1.60888394541715
  Br          0.61818878438149      0.61184427058614     -2.37217561814960
  Br          3.29521381615008      1.29627274571352     -0.83700531449195
  Br          2.88525660090945     -1.56702380852936     -2.17533466901218
  F           3.76605888616003     -2.00671961333252      2.35554821530655
  H           4.01455119878938     -0.74477562437746      0.84755257666573
  H           3.59752408900105     -2.43923447774533      0.42825681978316
