21
Coordinates from ORCA-job NEB E -37.407116658820
  C           0.07381123043213      0.85394114508244     -0.23318135520816
  C           0.13228352519325      1.05991085852622      1.14460081014419
  O           1.24793154160907      0.58904116103676     -0.91940483589910
  H          -0.64581083129147      1.45370229655441     -0.79251053091041
  Cl         -1.31583503803103      1.81833205290685      1.83029568447156
  C          -0.60523584903323     -1.07324501097723     -0.26731634306692
  C          -0.57636504925327     -1.50642106245891      1.05130298419974
  C           0.62579104534846     -1.33486325005148      1.77014796094517
  O           0.81861579102018      0.34810513276056      1.92877494754312
  C          -1.90514613962095     -1.05899926735132     -1.02536247560098
  H           0.24763231965564     -1.31180498318007     -0.89142841589058
  H          -1.50609203846744     -1.51233518010593      1.60603773800918
  H           1.54686294051247     -1.53911083015271      1.23570830687356
  H           0.64570886304065     -1.62665516367427      2.81133554217912
  C           1.91061223242466      1.76130357530178     -1.34917428250999
  H           2.77330733487715      1.42773210213295     -1.92208113467757
  H           2.24176944766615      2.36184431456411     -0.49638958393645
  H           1.25872536266767      2.37142242330140     -1.98456609343130
  F          -2.93086174050295     -0.55652757903322     -0.26737636292658
  H          -2.19331908339367     -2.08221036023883     -1.30124122394007
  H          -1.84438586485346     -0.44316237494351     -1.92817133636752
