21
Coordinates from ORCA-job NEB_product E -37.462330226220
  C           0.45503086574031     -1.44277628065268     -0.86811661579996
  C           1.22384910747795     -1.08716834063369      0.38856212133602
  O           1.28770475876228     -1.36942418419363     -1.99477214859311
  H          -0.41611788250275     -0.77688689714608     -0.96980861957415
  Cl          0.17582742396673     -0.42916152400720      1.64937013551263
  C          -0.02700327873226     -2.91090242181873     -0.74667235265440
  C          -0.83386150151138     -3.13740419664853      0.49783479386567
  C          -0.48111168154831     -3.96546913084267      1.46197630264230
  O           2.38294912594630     -1.21628679771912      0.58338688250702
  C          -0.85385681419166     -3.25684626611073     -1.98913850211549
  H           0.86291802255350     -3.54639685559560     -0.75222764735131
  H          -1.76354956679561     -2.58765969404313      0.54712124197536
  H           0.44173712888644     -4.52116486244940      1.42497564184803
  H          -1.09579896772710     -4.11519140389112      2.33229184592086
  C           1.61873129964413     -0.05433926565510     -2.38289426253277
  H           2.20444494076701     -0.15044375270580     -3.29430657419513
  H           2.21577375726799      0.45417886690951     -1.61984071914468
  H           0.71609767658439      0.53386555204403     -2.58549236396774
  F          -1.97587858675486     -2.46941468226387     -2.05664356467490
  H          -1.19617319492095     -4.29503201781114     -1.94717106272263
  H          -0.27751263291214     -3.07337584476531     -2.89963453228163
