21
Coordinates from ORCA-job NEB_reactant E -37.442428211000
  C           1.10604732136130     -0.06187028133577     -0.22656301438207
  C           0.98893512619999     -0.96255955985265      0.74891823286674
  O           1.60164466849869     -0.38846434499539     -1.44856168827558
  H           0.81525184793187      0.96668060586127     -0.05856819322340
  Cl          0.27082878176449     -0.44023509169907      2.26236904496523
  C          -0.73405791264047     -4.37346047198481     -0.99550291214343
  C          -0.53600757732841     -3.30824944830159     -0.23853639799003
  C           0.43677424339438     -3.25144995767132      0.89628004508562
  O           1.42118749379990     -2.23174651711836      0.70191264016029
  C          -1.70039480990524     -4.43842119721255     -2.13399716179296
  H          -0.19762045490768     -5.29644472442130     -0.82421668653972
  H          -1.07774797612320     -2.39276717322232     -0.43356252692364
  H           1.00723154251080     -4.17804662722195      0.97833738709073
  H          -0.09544249914328     -3.06324854014250      1.83951769259834
  C           1.80015482509524      0.69904629234063     -2.32231843289167
  H           2.14856320194901      0.27295271185377     -3.26096429163222
  H           2.55623854161081      1.38932287519107     -1.93401474199090
  H           0.86793856407920      1.24666763525690     -2.49564701390907
  F          -2.37987430515039     -3.26053153772069     -2.30823653951260
  H          -2.45565559709565     -5.21653370787711     -1.96350239873495
  H          -1.17689502590135     -4.64434093972625     -3.07634304282473
