19
Coordinates from ORCA-job NEB E -33.150261581230
  C           0.72302201233681     -0.23579389214255     -1.04014362618114
  C          -0.44625275452645     -0.97012906841943     -0.87009372694198
  Br          2.41085417201964     -1.06655709210797     -0.71379351792918
  H           0.79795560424092      0.46391481383755     -1.86191190889829
  C          -1.70773291304602     -0.47202781565945     -1.56447658085808
  C           0.54425098354805      1.00089006475075      0.62902136515337
  C           0.44212311539572     -0.00949535213471      1.60121994589172
  C          -0.66752949607565     -0.83184798834403      1.66814098692765
  O          -0.58737712765616     -1.79716222213770      0.08006904569021
  N           1.63610434612376      1.82590465601024      0.60895401891526
  H          -0.36513548736251      1.47553657230014      0.27722638574093
  H           1.36348448179184     -0.34608101184161      2.05634216509438
  H          -1.64514524674505     -0.42722687415653      1.44722220638457
  H          -0.66430110960904     -1.65868385351313      2.35898459346252
  F          -1.48450802255602      0.64788706860837     -2.32404493071228
  H          -2.47490811159875     -0.21716266249886     -0.82340887398889
  H          -2.09588489709288     -1.24960851318089     -2.23116518634703
  H           2.51431260651546      1.39513329945939      0.86221762771354
  H           1.70666784429633      2.47250987117040     -0.16035998911728
