19
Coordinates from ORCA-job NEB_product E -33.174732835400
  C           2.04554793694466      1.80144369642912      0.41927499957994
  C           0.76499065101472      2.16127103513515     -0.31671815246007
  Br          1.77411701579680      0.10011327969390      1.32842938567697
  H           2.88426753834835      1.66563243848475     -0.26657211124040
  C           1.02084494405128      3.08093165624643     -1.49391939726465
  C           2.38484410319605      2.90456384456204      1.44972596195676
  C           3.45228480935478      2.43355388963450      2.40012262329188
  C           3.33566182599168      2.46390191147674      3.71369623433908
  O          -0.31694597707476      1.79264116603599      0.03464422947642
  N           2.79583416975281      4.09319539040215      0.70742619964355
  H           1.47253837794591      3.14637856003263      2.00616852371209
  H           4.36547680827152      2.09355534624490      1.92746837626422
  H           2.42992262515923      2.79383905548149      4.19516941782653
  H           4.13432702785384      2.14618088401672      4.36084424433705
  F          -0.14345100934770      3.52035511040496     -2.05130932011735
  H           1.57984271870614      2.55210989546362     -2.27503307732716
  H           1.59138819436631      3.95164992325330     -1.14175514345400
  H           3.75951108079276      3.99642625186876      0.40039926062042
  H           2.74319715887562      4.91365666513287      1.29903774513871
