22
Coordinates from ORCA-job NEB_product E -60.920621358380
  C           2.02469266489454     -1.54851050687731     -1.67108142681289
  C           0.61552807034846     -2.08931878610396     -1.56044026070383
  C           1.99725928518449     -0.07865921805855     -1.22264165707987
  H           2.69073903022714     -2.09114023178481     -0.98624812062796
  N           0.45678148386477     -3.18245469096258     -0.46216517227534
  C           2.51528675692442     -1.65659571457050     -3.13351487223645
  C           3.82004276607118     -0.93850091767265     -3.35789857066681
  C           3.96043416486907      0.03863899589419     -4.23235384639181
  O          -0.33959598314188     -1.78480439864699     -2.18150337908398
  C           2.69884982956179     -3.13942261471000     -3.47031304025402
  H           1.74383447585957     -1.26211206413048     -3.80575269444798
  H           4.64858587500571     -1.28603867645765     -2.75746707485637
  H           3.13887100852576      0.39315207616404     -4.83221852408095
  H           4.90834403209800      0.52517441238517     -4.37574487104147
  F           3.22220168359617      0.39066689357457     -0.98423244890497
  F           1.43621661590911      0.72117745361058     -2.12833127747644
  F           1.30289121813921      0.05844008402715     -0.08751655253734
  O          -0.64873934334640     -3.61476050422400     -0.33968250311953
  O           1.45036389675809     -3.47697232650724      0.15068108816501
  F           3.69893240763568     -3.69525952505716     -2.78052302967007
  F           1.59697461766184     -3.85723289432116     -3.17917991248387
  F           2.95380544335329     -3.32256684557065     -4.76367185341305
