22
Coordinates from ORCA-job NEB_reactant E -60.915965019560
  C           1.43437559441591     -0.01592166573076     -0.14632188747090
  C           1.50202154122457     -1.31395794370136     -0.45850396100358
  C           1.86228688198507      1.16753316659129     -0.94821593122291
  H           1.01208759880103      0.23357090834493      0.81799038115215
  N           0.98453632348239     -2.26915782395100      0.58261234830294
  C           2.88792448860719     -2.44489819885114     -4.89544526464962
  C           2.80839692202523     -2.57529102173685     -3.58232255892747
  C           2.48472038348026     -1.45003259523605     -2.65309447686117
  O           1.92170006701023     -2.02706638906330     -1.48072767955563
  C           3.25004982892364     -3.58043752089073     -5.80242860830978
  H           2.71219187519012     -1.51459733907652     -5.41450610351468
  H           2.98492519375899     -3.52658725082164     -3.09904554449109
  H           1.78320425325458     -0.74960417773357     -3.11701121203251
  H           3.40988621468684     -0.91615415084807     -2.39767954350819
  F           3.17194578437856      1.14652536842659     -1.27169586042245
  F           1.20369185031364      1.28352938951076     -2.12021001866879
  F           1.65305087650448      2.29968417465768     -0.28102537112924
  O           1.06904151646274     -3.43303469606240      0.31556993567770
  O           0.53452596563536     -1.78806008791043      1.58811764435797
  F           3.47318868259161     -4.72890698837318     -5.15511331362704
  F           2.28322588982957     -3.82323337895534     -6.70237046507829
  F           4.36212226743805     -3.31260177858890     -6.50847250901741
