24
Coordinates from ORCA-job NEB_product E -48.689817468630
  C           0.77466462841122     -0.41706791468875     -1.71849803227905
  C           1.26950334719452     -1.24269769298027     -0.52045342188138
  O           1.85338669395033      0.13592219761708     -2.42400947364969
  H           0.09058346302817      0.36965396692049     -1.36593953908659
  C           0.39064752908629     -1.25201758347698      0.72078112285313
  C           0.04023179658619     -1.38315825656885     -2.67982626479986
  C          -0.74306740416296     -2.42506192076631     -1.92873566320812
  C          -0.41550189163568     -3.70276498313530     -1.90882745205421
  O           2.31354606636719     -1.83370311248600     -0.52963572585249
  C          -0.88294832313161     -0.63474257549326     -3.64129748838443
  H           0.82330392654793     -1.86322228514818     -3.27663292475987
  H          -1.60829514974748     -2.05817798516379     -1.39498934993089
  H           0.44282480873052     -4.07930430997232     -2.43977868957411
  H          -0.99337950038450     -4.42454199128110     -1.35805372580729
  C           2.48310145806089      1.20975674052745     -1.76624610649945
  H           3.23305040650822      1.58531143207356     -2.45832775595232
  H           2.97245674897203      0.88662102817632     -0.84122832183865
  H           1.76500101374770      2.00600722193531     -1.53567967658336
  F          -0.77908114336795     -0.56475509637458      0.56418986623747
  H           0.93693588017274     -0.78583614438529      1.54988116331118
  H           0.13973108689150     -2.28356143282391      0.98928098369631
  Cl          0.00265184282310      0.50843194099813     -4.66194726744191
  Cl         -1.68332465182639     -1.82194665175516     -4.70280863538612
  Cl         -2.14772263282194      0.25845540825171     -2.76861762112831
