20
Coordinates from ORCA-job NEB E -51.464461900870
  C           0.43571007809099      0.66181760839059      0.47848736396134
  C          -0.91406549048511      0.46361909732901      0.56744995216106
  Br          0.88429815269680      3.03478296963796     -0.41273997205629
  H           0.99800108804211      0.92271148165791      1.35973021510169
  C          -1.70679722432779      0.54972053321478      1.83375429366763
  C           1.13546541001552     -0.17062698486722     -0.59787862430066
  C           0.18862541651950     -0.59759782344581     -1.64360184881550
  C          -1.00370920223949      0.27456983803733     -1.77084293401212
  O          -1.64132048196445      0.12043703126403     -0.49614741054195
  C           1.82654103429189     -1.37216192359401      0.05532472558231
  H           1.92254525554277      0.45721042401143     -1.04077637058476
  H           0.08734160301780     -1.64379827509672     -1.88547952834498
  H          -1.72093990333121     -0.07651636784657     -2.50999367681034
  H          -0.75424212048885      1.32516497207015     -1.93877900091987
  Cl         -0.69440834028437      0.35239028361767      3.26863473823234
  Cl         -2.48002852904228      2.16513263575326      1.89027485895611
  Cl         -2.97131985325852     -0.69715088643114      1.84028382011417
  Br          2.77273774798699     -2.40634136020619     -1.30155624069534
  Br          3.13362087639525     -0.82751375720103      1.39137201013583
  Br          0.50194448282244     -2.53584949629542      0.91248362916932
