20
Coordinates from ORCA-job NEB_product E -51.520334477990
  C           2.93745897899385     -2.10644744780370      0.09227809230937
  C           1.55879371976764     -2.55655096044595      0.52447220061135
  Br          2.64808017158890     -0.36222529503823     -0.75142323509353
  H           3.58704822496803     -1.91280346004488      0.94821517312971
  C           1.28373132742549     -2.45508012478381      2.03649492247121
  C           3.62854642434477     -3.02691666982032     -0.93088392688893
  C           2.74042191767569     -3.36523440063320     -2.09849000116066
  C           2.86523182374206     -2.78813259113848     -3.27867977887270
  O           0.68317477079853     -2.85579834522705     -0.23062350452049
  C           4.15255125506134     -4.29959008111367     -0.27593144030776
  H           4.50559120324311     -2.47991457117655     -1.30629841380264
  H           1.97019533647663     -4.10142600851031     -1.91820484927908
  H           2.20741390876724     -3.03832246144255     -4.09133999692668
  H           3.61653788360676     -2.04146941435820     -3.47820209925670
  Cl          2.62959439112090     -3.01104435452111      3.04724997005262
  Cl          1.02218934129490     -0.70871768376657      2.32360374667915
  Cl         -0.17601792642379     -3.36004642080551      2.44402075359779
  Br          5.02411099221086     -5.39821033631090     -1.63423814430321
  Br          5.49190541702523     -3.89788452095365      1.09472553572134
  Br          2.73704083831186     -5.36468485210537      0.54595499583986
