31
Coordinates from ORCA-job P E -44.467670186730
  C          -1.40557545683771      0.24380381112994     -2.23081271395866
  C          -0.17294310083292     -1.82595201121477     -0.89898622951819
  C          -1.63121052540809     -1.94518608159929     -1.21514542253114
  C          -2.22370696741336     -0.96067520870802     -1.87080411200412
  C          -0.68156628232628      0.68876081362517     -0.94589498837289
  C           0.13523213481190     -0.44352530707284     -0.29085141582480
  H          -2.14804931136857     -2.84007960517058     -0.90880548909405
  H          -3.26933257130533     -1.00075888757688     -2.12392964066273
  C          -2.19878424839488      1.37716905608989     -2.92242310278764
  H           0.14044987664100     -2.61545395178107     -0.21530750840707
  H          -0.63661706202444     -0.07725723267508     -2.94688893498545
  H           0.39359251857178     -1.94191234281443     -1.83067847551029
  H          -1.42702604954265      1.03536152756856     -0.22989579924151
  H          -0.11729620325794     -0.48832483055960      0.77622983101875
  H          -0.03190773104210      1.53311699889270     -1.17601335601184
  C           1.62415030314556     -0.14475119394196     -0.35590348334079
  C          -3.34670438254473      1.89309443946412     -2.05171417809777
  C          -1.26403028463947      2.54561244659288     -3.25893134663701
  C          -2.76280249918133      0.83360200324334     -4.24077321162290
  H          -2.97224042056865      2.37295568180507     -1.15081259973034
  H          -4.01678442451863      1.08893570492436     -1.75960136191011
  H          -3.92394418629698      2.63005058543218     -2.60537359132505
  H          -0.96901406690827      3.09272763800127     -2.36722755349401
  H          -1.77144373988481      3.24507234318245     -3.91911032611558
  H          -0.36831593206647      2.19191197388970     -3.76551898938343
  H          -3.44421799498015      0.00428329482008     -4.07352178990705
  H          -1.95707760404688      0.48786247147855     -4.88476003391159
  H          -3.30699006840850      1.61507763667165     -4.76592778816957
  Br          2.04824928820979      1.50131678944631      0.62993888915242
  Br          2.69302816785714     -1.57196769285140      0.45505876310519
  Br          2.24946882456199      0.09225912970771     -2.18716404072078
