31
Coordinates from ORCA-job R E -44.374916851000
  C          -1.75891955192588      0.09799594936841     -2.80458693018354
  C          -0.50240951052747     -2.45475627281020     -1.77793490847762
  C          -1.47416559868589     -1.76095899511307     -1.19423225019795
  C          -2.15314688178688     -0.59554339127196     -1.73814814696279
  C          -0.38333059848229      0.91834832135539      0.56457177294177
  C           0.72708014662011      0.33374230449903      0.97145213642994
  H          -1.82912491854461     -2.08036438210261     -0.22094520339707
  H          -3.03856513571361     -0.29613943010522     -1.19425369037760
  C          -2.41521051115687      1.31094974039092     -3.40292741136793
  H          -0.06046144386993     -3.31345587561897     -1.30224469397323
  H          -0.85986509740631     -0.20183006398243     -3.32648881768924
  H          -0.11939096528628     -2.20249374083418     -2.75189707760567
  H          -1.19392497421677      1.08830201757867      1.25083472488861
  H           0.85547650536052      0.01832932551553      2.00009740141494
  H          -0.53809628440704      1.23333014834289     -0.45381306290747
  C           1.91529493512189      0.05230680931977      0.13543225571228
  C          -3.72190373219789      1.69348466964766     -2.70817214884574
  C          -1.42783155114027      2.48387827648296     -3.31352460044709
  C          -2.69724723917718      1.00584373162456     -4.88047929720914
  H          -3.54951525272963      1.94393915728877     -1.66376015418678
  H          -4.43863539016653      0.87734401263068     -2.76090733992614
  H          -4.15759421207998      2.56254700144772     -3.19620564440440
  H          -1.25994950989962      2.76610147141216     -2.27609791732319
  H          -1.82207209389357      3.34911036758015     -3.84140907398944
  H          -0.46958398424465      2.21553022572300     -3.75290092631130
  H          -3.37199728272402      0.15711982039850     -4.96908397952362
  H          -1.77456625412367      0.76861695777464     -5.40484063052640
  H          -3.15654120262198      1.86542989007268     -5.36347075017644
  Br          3.45671440582289      1.07250893752586      0.84948003306113
  Br          2.36564558019865     -1.85740686950398      0.24665345951578
  Br          1.72841760388472      0.50943988536264     -1.72876712795464
