31
Coordinates from ORCA-job TS E -44.361638147560
  C          -0.36072939763990     -0.23228507920237     -0.46099606714475
  C           0.93203720983332     -2.57889341243250      0.65942468116830
  C          -0.40821885633404     -2.40808467796245      0.64580305884579
  C          -1.04722246308608     -1.28709668695574      0.06773699310596
  C           0.55068572036815      0.37702926957723      1.47353539312413
  C           1.40802939934758     -0.57022828333531      1.94660507164385
  H          -1.02540717982034     -3.07542384566913      1.23274550791064
  H          -2.11404505385236     -1.20465069521899      0.22140222328523
  C          -1.03984992717209      0.94574671379824     -1.12501913393049
  H           1.37019725350814     -3.40020297820927      1.20177503161579
  H           0.64282298683224     -0.40044260277327     -0.82280096192408
  H           1.57186680733199     -2.09793612830535     -0.05806318194382
  H          -0.41219313436341      0.48572672077712      1.93590989232549
  H           1.12194562531007     -1.22632482580523      2.75416310972191
  H           0.92988561111832      1.22825745218843      0.93671088593459
  C           2.86108426665434     -0.45964954511917      1.72885430818276
  C          -2.18587555355262      1.52753614775781     -0.29412513798806
  C          -0.03102227716407      2.05596676730367     -1.43718020449979
  C          -1.59900806282773      0.41488565457893     -2.45734357103714
  H          -1.82686889863063      1.88576542875888      0.66746489255965
  H          -2.96584077472141      0.79115843615778     -0.12114329537000
  H          -2.63050493793910      2.36751943813105     -0.82290490470861
  H           0.27262672946750      2.58260253000521     -0.53564365507537
  H          -0.47872394466694      2.78667054391032     -2.10675934274089
  H           0.85659977128519      1.65228759798650     -1.91951723823730
  H          -2.32078252338156     -0.37900079155916     -2.28232980902759
  H          -0.79624748640076      0.01868107260459     -3.07472867801935
  H          -2.09050851230930      1.21689026151361     -3.00315729505861
  Br          3.61182470613272      0.97316799187639      2.96081716982621
  Br          3.84536363781107     -2.08253643491965      2.15874104075335
  Br          3.35807925886171      0.09286396054182     -0.06997678329781
