16
Coordinates from ORCA-job NEB E -29.348823088860
  C           1.18167163152909      0.61664567388215     -0.19590041066511
  C           0.22830890260627      1.36985582019619      0.51159945237975
  N           1.18056778108655      0.64964790863000     -1.56539535529025
  H           2.16761923503798      0.50310744730084      0.24187679152826
  Br          0.69232967877069      1.65415420086928      2.40915048734291
  C           0.28313751254652     -1.17021659529735      0.37663072281678
  C          -1.01867530496274     -1.01474294124805     -0.07966498167597
  C          -1.84836667492376     -0.08283705099866      0.54817061486764
  O          -0.97427328686979      1.45786017241757      0.20196639307368
  Br          1.40809181700460     -2.43835416838245     -0.50833325019119
  H           0.51598329543737     -1.11322869619443      1.43142047077499
  H          -1.25244294052355     -1.32700527790893     -1.08855904553621
  H          -1.80147482520879      0.01866767505540      1.62483109046883
  H          -2.81582241183182      0.12390716262965      0.11829911465211
  H           1.77953221435117     -0.01529141533210     -2.03094670188276
  H           0.27381337595021      0.76783008438089     -1.99514539266345
