25
Coordinates from ORCA-job NEB_reactant E -44.387094856650
  C           1.51524849401426     -0.11195017568797     -0.14241596575338
  C           1.43774056980679     -1.39093262526250     -0.50748169397702
  C           1.92561418586480      1.09180827309505     -0.93171227583033
  H           1.24385096200443      0.10977767389286      0.88012043019387
  C           0.93494694300446     -2.42926084311100      0.48138473607313
  C           3.16235727419003     -3.00596490579774     -4.52138743813877
  C           3.34820245821667     -2.72186475321528     -3.23260092676871
  C           2.72519165916844     -1.54737160182002     -2.55465267731086
  O           1.71846810986607     -2.03955269653876     -1.66333810665686
  N           3.61638528038221     -4.13529954569012     -5.15624237118056
  H           2.57729408014638     -2.34809577778714     -5.15050028131818
  H           3.91168452387760     -3.38957449943396     -2.59833645582534
  H           2.26267594286224     -0.88505523384008     -3.29594961656397
  H           3.47301866241411     -0.99209286568818     -1.97702618197593
  C           3.23712667585395      1.67610463851787     -0.40298042578652
  H           1.13895553250123      1.84251726796266     -0.81632007246275
  H           2.01734328242749      0.86932102973097     -1.99231118245703
  H           3.14570080691241      1.91867547309991      0.65295258036969
  H           3.49147524299550      2.58269992199117     -0.94638363519722
  H           4.05105100567496      0.96364967984636     -0.51974785636991
  F          -0.13847322968488     -3.08803738954953      0.02471400740687
  F           1.87097318629363     -3.35755007884169      0.74112556837805
  F           0.58228420352848     -1.91396605645261      1.66927652686280
  H           3.79176945456880     -4.06946987235620     -6.14474598483377
  H           4.28641469310991     -4.68781503706406     -4.64484070087731
