25
Coordinates from ORCA-job NEB_product E -44.383138275640
  C           2.57252314221549     -1.36869792046705     -1.07296415386871
  C           1.39264812417047     -2.21498682625517     -0.70020117579109
  C           2.11747849741116      0.10369991551318     -0.97157371940458
  H           3.38008681383724     -1.54875062727750     -0.35777335532886
  C           1.48953063963447     -2.78386734231686      0.75039085086883
  C           3.10937354105635     -1.73044400568603     -2.48185346792052
  C           2.14886813472896     -1.36689732414198     -3.58136203355796
  C           2.45890556297548     -0.57871467311722     -4.59411843720068
  O           0.41891985338921     -2.45071600199468     -1.35586826036706
  N           3.45342278812821     -3.14829026513649     -2.47694727505512
  H           4.04803955528090     -1.18372143033416     -2.62169188936143
  H           1.17908785995049     -1.84160950266438     -3.52650772113114
  H           1.76310821880325     -0.37225337338161     -5.38932887684765
  H           3.42432737066836     -0.10396967243718     -4.67205716334420
  C           3.27815966991750      1.07867501634025     -1.11275732728864
  H           1.64428551901971      0.25642153308893      0.00089006955860
  H           1.37299709166335      0.29335233606632     -1.74650901639190
  H           4.05673034218459      0.85638844047207     -0.38729311514567
  H           2.92445217058679      2.09128052959537     -0.93672261592557
  H           3.70513720271669      1.03704480715012     -2.11014627944312
  F           0.39764390357108     -3.45676002839969      1.10839561574975
  F           2.53576057822331     -3.60990423316438      0.88569777202775
  F           1.65995648147008     -1.79339457337580      1.64420168736391
  H           3.96418231737161     -3.38787231968428     -3.31897073770881
  H           2.61517462102525     -3.72051245839177     -2.45382937448615
