17
Coordinates from ORCA-job NEB E -41.456524108310
  C           0.67372237833831      0.78986495548472      0.32620819274352
  C          -0.72192005820840      0.49797444687164      0.46668223523068
  I           1.02726252922268      2.37284856161580     -1.18276296891233
  H           1.11026154159894      1.18722900572221      1.23979747461816
  C          -1.38410468524784      0.54912326604430      1.80345015499432
  C           1.41006732650001     -0.53132765910229     -0.13101004766685
  C           0.70996303150754     -1.09515589216227     -1.26050393303776
  C          -0.70117723137748     -0.75921762756743     -1.51293836640005
  O          -1.42491904227082     -0.13637451138408     -0.49459024188047
  Br          3.35238805455860     -0.19957530930622     -0.54108241630664
  H           1.46997744902101     -1.15307815955163      0.76385170045273
  H           1.26953764514946     -1.39630469823039     -2.13116738566395
  H          -1.28679242631300     -1.65782907549781     -1.74368919626436
  H          -0.74671751632934     -0.12946087045503     -2.41848132847381
  F          -2.70939570437282      0.48416232599317      1.73367495529690
  F          -0.98951985349454     -0.48244607180278      2.60171824623516
  F          -1.05863343828231      1.65956731332810      2.48084292503474
