17
Coordinates from ORCA-job NEB_reactant E -41.497451133860
  C           2.02723942714521     -0.25751149133621      0.17868134399792
  C           1.56269459277698     -1.42888207068487      0.60389220718253
  I           2.87484918331459      0.28352458709225     -1.66058446137457
  H           1.96754604783993      0.58955209551328      0.83926804152204
  C           0.97038565823648     -1.48892964187878      2.01151357846348
  C           4.12955176872310     -4.45890405500612     -0.96895284433248
  C           3.55176636531621     -3.27138441810997     -0.92478294734941
  C           2.07551724409985     -3.08687273635901     -1.10652934486239
  O           1.44256936878172     -2.67002228215670      0.09860405099004
  Br          5.98449520910249     -4.69326437391311     -0.74386351869343
  H           3.60016482598378     -5.38070750039308     -1.15283867486384
  H           4.13633976097048     -2.38433264630390     -0.72754138897234
  H           1.59546805905410     -4.04259768879637     -1.33015634609396
  H           1.86711839681670     -2.38640002962359     -1.92063551400941
  F          -0.30098965849536     -1.89894192528752      1.98687618353000
  F           1.64665496606494     -2.34963901311677      2.77973744771450
  F           0.98402878426880     -0.31248680963954      2.64691218715130
