20
Coordinates from ORCA-job NEB E -41.419282231090
  C           1.05529877012369      0.21522843342723     -0.59277979520862
  C           0.36997858808453      0.93390967326909     -1.58817500817191
  C           1.17119537964139     -1.28265057300981     -0.77648279775385
  H           1.98541521952392      0.65855869025001     -0.25187297474378
  H           0.60995906162002      1.98986438511406     -1.73893102349343
  C          -0.19887959164782      0.44303059747169      0.82463595431459
  C          -1.39563499081197     -0.05992140220309      0.28533336982631
  C          -1.92136738527391      0.59379214733819     -0.86329190025207
  O          -0.77772821289446      0.50616836363328     -2.00791169453628
  C           0.30408045817163     -0.14236927365811      2.12209680282226
  H          -0.11720497855383      1.52599378474803      0.88308804082431
  H          -1.63565831944713     -1.09998267995809      0.44057581970821
  H          -2.04368222827248      1.67137341533749     -0.79151785398496
  H          -2.76800002976990      0.11526320572975     -1.34011889186142
  F           2.20885653239850     -1.52112659333674     -1.64838374865426
  H           0.26994183042467     -1.69923844730707     -1.23456077587482
  H           1.42594888506739     -1.80807261734512      0.14566539568099
  Cl          2.03098775611432      0.18014666098735      2.39203437865363
  Cl         -0.60127333053659      0.66485075755195      3.44760315422488
  Cl          0.02776658603802     -1.88481852804008      2.29299354848021
