20
Coordinates from ORCA-job NEB_product E -41.462236807710
  C           1.52005293227594      0.22950071927055      2.49427945557413
  C           1.39478835574645      1.28347320325173      1.40460124131265
  C           1.33263364884253     -1.16736000866149      1.90067936232053
  H           2.52736008639013      0.29539447083468      2.91724836323961
  H           1.86140655388905      2.24788252535474      1.68221597050058
  C           0.48620006295275      0.62160405507980      3.58138261538260
  C          -0.87374595383789      0.05338734147906      3.27807595456583
  C          -1.85543701004240      0.76681377872173      2.76184011318704
  O           0.82532867268006      1.13611866902544      0.36621282887158
  C           0.92900750755932      0.24595953814047      4.99810131874683
  H           0.41252341583423      1.71688767934137      3.58322462899931
  H          -1.00509021247113     -0.99491723035463      3.50037995960291
  H          -1.74365941884664      1.81376051660600      2.53344249045022
  H          -2.81212809344695      0.32896479676174      2.53869534849711
  F           2.49037417140575     -1.52525506024778      1.25663357819444
  H           0.53498826718827     -1.16936110039744      1.15125950309792
  H           1.15539331825816     -1.92717526204724      2.66409199155312
  Cl          2.46083145343657      1.05643735145074      5.41427371247885
  Cl         -0.31621347710836      0.80135563351682      6.15027078470972
  Cl          1.14718571929417     -1.49707161712628      5.22739077871502
