20
Coordinates from ORCA-job NEB_reactant E -41.456689166890
  C           1.69768237136523     -0.11954891789032     -0.01730954340613
  C           0.85455968974606      0.50666100779120      0.79283585843890
  C           2.58103563120626     -1.24130173162195      0.42110718170225
  H           1.77373296631965      0.17673026635658     -1.04987799887954
  H           0.22694883953326      1.31708413425914      0.43891532152599
  C          -0.42647292031485      0.99208152319594      5.35164903955789
  C          -0.35223235251634      0.34929733907440      4.19703048249417
  C          -0.08262605741788      1.01874800055349      2.88814405242478
  O           0.69961952642903      0.15024619413880      2.09680263025149
  C          -0.72822686901259      0.37382421666738      6.66787371913868
  H          -0.28014438770869      2.06211963744179      5.40951858009759
  H          -0.48680354331134     -0.72045257204828      4.13429800287946
  H           0.43263896357085      1.97780042533647      3.03656214889363
  H          -1.04431205072894      1.21962117615661      2.38735513483826
  F           3.81837215785935     -1.14147511623722     -0.17492149606167
  H           2.17583894510372     -2.21566713858536      0.11853144485920
  H           2.73599807895809     -1.22240113244995      1.50374337033065
  Cl          0.59993441606142      0.73730411805039      7.80910302043570
  Cl         -2.23105008395913      1.09750919673850      7.32253235379256
  Cl         -0.94249332118314     -1.37818062692762      6.60560669668616
