18
Coordinates from ORCA-job NEB_product E -43.356040789140
  C           1.25958251898880     -1.13018990394184     -0.99418939204500
  C           2.58874413896171     -1.57428925415277     -0.37196783363684
  C           1.43533596462407      0.20581099870864     -1.72334114420544
  H           0.51915801528456     -0.96759161599371     -0.20299631042884
  C           2.39222390261666     -2.72165590299410      0.50349634304761
  C           0.73547500442150     -2.26585069884076     -1.91734497931189
  C          -0.46419469574817     -1.85479663581372     -2.71964302026662
  C          -1.70342170333161     -2.00892067165506     -2.29576642363937
  O           3.65219873786935     -1.07204939220964     -0.57785058072323
  F           1.75172908260672     -2.64674199422430     -2.75979394186197
  H           0.51338841757168     -3.14115843325316     -1.29010371338658
  H          -0.23558441280436     -1.41983947370731     -3.68126904691246
  H          -1.93087764859527     -2.44871696829353     -1.33822147311229
  H          -2.54076888901653     -1.69688139591501     -2.89306462086238
  F           2.17003645468265      0.12910783204332     -2.82510562112762
  F           0.24420064122727      0.71892703248171     -2.08110391977928
  F           1.99649043330645      1.11761103727562     -0.91988948435522
  N           2.21818403733453     -3.62457455951436      1.18315516260741
