18
Coordinates from ORCA-job NEB_reactant E -43.362923976080
  C           1.70847451571429      0.01032234352349      0.02910325993873
  C           1.08864085170768     -1.14196367772071     -0.28910554983014
  C           2.03532971374972      1.02694498609289     -1.01569965069999
  H           1.99375470961093      0.24185666789188      1.03960925591690
  C           0.80339069295982     -2.06413935974144      0.76434311017239
  C           0.20161651239701     -3.73876316110640     -4.01930803455666
  C          -0.19864248052421     -2.73644935870332     -3.26075857212390
  C           0.07278206785065     -2.66608853635446     -1.79426391415681
  O           0.73985688462760     -1.43125447355814     -1.54662387102667
  F          -0.06937313930084     -3.78398151542599     -5.32531633143846
  H           0.74713083542431     -4.61171450048417     -3.68770295503961
  H          -0.73015421397622     -1.90067828324252     -3.68960582601252
  H           0.69642484324566     -3.50842318376006     -1.47004274936468
  H          -0.87279731561172     -2.69019322501979     -1.23370521398441
  F           2.88450339748351      0.56224663399887     -1.94894758401777
  F           0.95026699526952      1.46053822555778     -1.67980643954688
  F           2.61349263424269      2.10978115136627     -0.47960097525294
  N           0.55920249512959     -2.79914073331419      1.60703204102343
