19
Coordinates from ORCA-job NEB E -41.614102362830
  C           0.31333086780757      0.53747746767983     -1.17456203369339
  C          -0.96174645841530     -0.05808822762448     -1.28840336323305
  Br          1.75642610876184     -0.43555415533723     -1.95693735175795
  H           0.41353856874799      1.60051684269007     -1.35772034497852
  N          -2.07612689747999      0.74182383683585     -1.16372460605338
  C           0.49292547891574      0.26059552094910      0.77157814664119
  C           0.37990113159149     -1.12368970282654      0.91450043326034
  C          -0.85735404880929     -1.70415150407927      0.52472754552089
  O          -1.09455278576650     -1.32039931126467     -1.06437793087321
  C           1.77795284315012      0.92788953390013      1.18414118595124
  H          -0.35630198498045      0.88069608486145      1.05017053255195
  H           1.27734767913324     -1.72076073742113      0.85384533043757
  H          -1.75355786944180     -1.25561704837221      0.94565875417384
  H          -0.89832048274881     -2.78484374011569      0.49287111830504
  H          -2.96262044511648      0.26673943354949     -1.22792750052561
  H          -2.04894860276971      1.67142920739754     -1.54648918119343
  F           2.87194702058852      0.19816762239608      0.97206551903099
  F           1.96872824122546      2.10886499893331      0.56744814905645
  F           1.75743163560636      1.20890387784835      2.50313559737903
