19
Coordinates from ORCA-job NEB_product E -41.675606436180
  C           2.54278978108100      0.93139418192388      2.05992782302332
  C           1.31523044746796      1.85286037343158      2.13743135989502
  Br          2.13684302821417     -0.37212437189795      0.65345345879695
  H           3.43233590145134      1.46416380929153      1.71594871637015
  N           1.28300350437109      2.79791442220002      1.18141906760955
  C           2.79028503181511      0.23067193303905      3.39576733287721
  C           3.59606427807664     -1.03322809228816      3.26949720862005
  C           3.19046537601877     -2.19894507341620      3.73293717506471
  O           0.46029626942997      1.70375768733299      2.97377609759640
  C           3.54877567451116      1.19784003486915      4.30268901076680
  H           1.82134094874352      0.03119229175775      3.87121190001078
  H           4.54887083932195     -0.92529700364200      2.76876132612767
  H           2.24326441326007     -2.31508817255950      4.23290526044679
  H           3.78957259515847     -3.08522413420085      3.62281341180471
  H           0.48236490287852      3.40710111826802      1.13996587090287
  H           1.97321395919776      2.86297766898651      0.45406716550316
  F           4.78578922398631      1.45276621893830      3.83557378127431
  F           2.95387721549766      2.39338343113154      4.42005343007638
  F           3.69751660951853      0.71348367683434      5.53800060323317
