22
Coordinates from ORCA-job P E -35.605619367610
  C          -1.08820304811285      0.58887484332575     -2.40885232472678
  C          -0.48045044834842     -1.66690082341120     -0.55211899304700
  C          -1.26954601886136     -1.82144673667060     -1.81560610098475
  C          -1.53914407499706     -0.82820635468105     -2.64426480027159
  C          -0.71343651472237      0.81299483542402     -0.94200950451637
  C           0.20064676131464     -0.30543448158206     -0.45736219658607
  H          -1.61133131101825     -2.82345900968736     -2.03203763143022
  H          -2.08556262146451     -1.00123395843698     -3.56007475792475
  C          -2.19915062895221      1.51715099153121     -2.86898950980702
  H          -1.13974763680808     -1.79660532566451      0.31082033591495
  H          -0.22121605945409      0.78601168362084     -3.05111894790045
  H           0.28282160699840     -2.44770123309650     -0.50253117724745
  H          -1.61305693487613      0.81133580303768     -0.32696122963889
  H           0.54358405817490     -0.11352352281546      0.56827277928337
  H          -0.21082720816131      1.77524520808254     -0.83112607305262
  F           1.35198982326961     -0.31647695251720     -1.22707157093009
  O          -2.22965831357036      2.06971187133321     -3.93571475928111
  O          -3.17573118990770      1.61610005517613     -1.95931803625805
  C          -4.28544932314174      2.42597709908651     -2.32226735706785
  H          -4.99024211113093      2.36394715611027     -1.49726112731248
  H          -4.73858998747623      2.05724419451514     -3.24449124853310
  H          -3.96571881875395      3.45827465731964     -2.47768576868169
