22
Coordinates from ORCA-job R E -35.510525068690
  C          -1.41090855828281     -0.11512927649837     -2.63719904282158
  C          -0.06547778471244     -2.69717007961436     -1.84621973371766
  C          -1.36811699613563     -2.52032941436862     -2.05008807803460
  C          -2.01717096506178     -1.23894913202851     -2.23345230818418
  C          -0.54780335926805      2.18325351012524     -0.01814420038670
  C          -0.10421566541813      0.99963604249908      0.34040171813059
  H          -2.02819334607489     -3.37882254856490     -2.05991321521117
  H          -3.08282452046348     -1.21282424754412     -2.04695169698686
  C          -2.09728392011244      1.17051121036730     -2.79667209065530
  H           0.35361252500069     -3.67999919687149     -1.71390104199968
  H          -0.35743350677602     -0.08737950249624     -2.87055747475396
  H           0.62016667090646     -1.87043565951179     -1.78116475539518
  H          -1.28110301027475      2.69009394533369      0.57997717761397
  H          -0.39989465037130      0.43569693062786      1.21352849903002
  H          -0.20470773518311      2.66676375878143     -0.91573031832557
  F           0.81396586185510      0.33397635137008     -0.38036443693172
  O          -1.55468685464935      2.19117357387067     -3.15294461487880
  O          -3.40934417035122      1.11484737753479     -2.49558991625317
  C          -4.12197289122387      2.33313849842830     -2.63384303957113
  H          -5.14313577419400      2.12652507507889     -2.32379262473641
  H          -4.09765416322700      2.67163219628190     -3.67202641167265
  H          -3.67777718598196      3.10699058719918     -2.00399239425827
