22
Coordinates from ORCA-job TS E -35.496510198110
  C           0.14012151068605     -0.04790448835606     -0.77381688722125
  C           1.61080278135647     -2.22489533169227      0.34586623509771
  C           0.26491025887486     -2.28464839467335      0.16044676984317
  C          -0.46292123837047     -1.21530288813319     -0.39364709189824
  C           0.98448297277774      0.55758595292519      1.27682989432733
  C           1.80305005557641     -0.42354049201919      1.71884383430383
  H          -0.29971516552065     -3.08331783305928      0.62188287808029
  H          -1.54115362227173     -1.24436993567067     -0.33391099613461
  C          -0.62205195104476      1.14541915748207     -1.17253575058364
  H           2.11870638808500     -3.00339034842021      0.89236779267346
  H           1.16895470533356     -0.02366660122831     -1.09575795866667
  H           2.24029109238132     -1.62890985346251     -0.29056547422368
  H          -0.01479562232175      0.62387023239969      1.66106863918679
  H           1.57415372328669     -1.11779418329936      2.51170442692346
  H           1.39192133305354      1.41650665737953      0.77509587470689
  F           3.13469100879512     -0.32512757505807      1.50862484386966
  O          -0.14455982794159      2.09483274030011     -1.74710241284595
  O          -1.91513382466164      1.08996363915678     -0.80221435928593
  C          -2.70537391628418      2.21478478353242     -1.15227175970342
  H          -3.68034135615448      2.05618855956009     -0.69833154168011
  H          -2.79724783395735      2.29148755500497     -2.23782975667807
  H          -2.24879147167816      3.13222864733166     -0.77474720009101
