20
Coordinates from ORCA-job NEB E -39.096777426060
  C           0.76444968127653     -0.53669825843058      0.78230292911985
  C          -0.43444890796872     -0.14032493495208      1.38221224247992
  I           2.51355574987051      0.50688713498561      1.41138593270693
  H           0.97659761068582     -1.59857869433220      0.72800639314331
  C          -1.51475225572538     -1.13062100829661      1.65778482906929
  C           0.47104519018994      0.00729344872624     -1.06358623644379
  C           0.10868873206928      1.34019974768467     -0.88844268428893
  C          -1.05310635249295      1.65488071576905     -0.10326357713190
  O          -0.77816588631148      1.12176386683299      1.35006695599661
  C           1.71054375800135     -0.33581825826784     -1.84025640567525
  H          -0.33472529658134     -0.70150017368310     -1.23346784637963
  H           0.87183900884815      2.10006740724508     -0.98600581435747
  H          -1.96580561403394      1.13189123798968     -0.38931464798324
  H          -1.23374290727985      2.71074188963759      0.06658398645340
  Br         -0.86486729139027     -2.60616966354610      2.75169562514501
  Br         -2.98798688382947     -0.25928963157054      2.55752940632605
  Br         -2.29238936553823     -1.98975457196451     -0.02427599538999
  H           2.06790039372461     -1.33279596111567     -1.59342943593754
  H           2.50699409428753      0.38257270101416     -1.66325326471759
  H           1.46837654219790     -0.32474699372584     -2.90227239213503
