20
Coordinates from ORCA-job NEB_reactant E -39.123387754560
  C           2.54320994438988     -0.48643443770103     -0.43318555090680
  C           1.64029066943186     -0.64808846678050     -1.39620194626988
  I           3.16580708947104      1.37101899082302      0.28717565783981
  H           3.00373436036742     -1.32515277555943      0.06106244373211
  C           1.22764777816339     -2.05128537514592     -1.78372004635650
  C           1.97593014901301     -0.25066886278899     -5.12191486428048
  C           2.46547437962355      0.21912171813430     -3.98413758886152
  C           1.68783370105449      1.09142156895710     -3.04884213365734
  O           0.97134407543544      0.31678756265072     -2.06034325154901
  C           2.70194293227019     -1.16830363898921     -6.03946975949078
  H           0.97740542262132      0.03172117369167     -5.43165425697917
  H           3.45909782384312     -0.06257875409833     -3.65782801856724
  H           0.88892203182900      1.62381489795449     -3.56734053438694
  H           2.34271728941711      1.81116465085037     -2.54796519352286
  Br          0.69954713404101     -3.11349419189165     -0.23092157465139
  Br         -0.24856258243080     -2.00761894643198     -3.01844373046149
  Br          2.72423506253129     -2.98847592197489     -2.65324677357423
  H           2.12828708881404     -2.08446603180283     -6.17530969220715
  H           3.68478294397226     -1.42137483662430     -5.65030799170888
  H           2.81285270614138     -0.70450832327260     -7.01860519414024
