20
Coordinates from ORCA-job NEB_product E -39.135621561860
  C           2.03296803576468     -0.73039522803664     -2.45903448050372
  C           0.82389833676417     -1.60577229811178     -2.38559253365387
  I           1.68337648129739      0.62571374642036     -0.79006214149993
  H           2.95839591148457     -1.26017752690355     -2.22936196012738
  C           1.00508417349654     -2.94943170454156     -1.67996193922872
  C           2.13433772411173      0.03153133548542     -3.78076709852624
  C           3.26618275892018      1.01483911788502     -3.72194175276539
  C           3.11511693814461      2.32102065617152     -3.82687898434126
  O          -0.23877052165386     -1.34972027113005     -2.87525443223031
  C           2.36302982363462     -0.96574750290346     -4.92034844900742
  H           1.19074728810228      0.56027782184625     -3.95086060676253
  H           4.24728054535491      0.57775578698733     -3.58796269022906
  H           2.14547750437210      2.77163538031291     -3.96164276555337
  H           3.95276549628431      2.99476986331242     -3.78168666757233
  Br          2.08354854327742     -2.91988493157896     -0.07722355709206
  Br         -0.72226413094482     -3.73091288907990     -1.29552368171582
  Br          1.93087675596247     -4.04549729772383     -3.02710257956344
  H           1.51234143356813     -1.63397513969426     -5.03317830088412
  H           3.25666438709044     -1.56201243062125     -4.74390525863026
  H           2.49214251496812     -0.42101648809599     -5.85211012011274
