21
Coordinates from ORCA-job NEB E -45.495926928740
  C           0.53691712846282      0.95173759919695     -0.40670487924637
  C          -0.85175706458047      1.04685279247253     -0.63192389190269
  F           1.30621876593919      0.93990250835582     -1.51556043136458
  H           1.03550297975743      1.50436292547251      0.38146310895312
  O          -1.71716930225097      1.37882612003611      0.36444980195594
  C           0.55595342368264     -0.95726559696985      0.08390406187532
  C           0.04713418243941     -1.54201549218119     -1.08149764523491
  C          -1.29568893565836     -1.23975441166775     -1.41647545056051
  O          -1.36069695315617      0.41476739384833     -1.62008213580277
  C           1.94613786956717     -1.29413253424470      0.54438428358681
  H          -0.12010170927598     -0.89178222450505      0.93359189267477
  H           0.73472853644304     -1.80749834853201     -1.86917028565003
  H          -2.03494674594263     -1.33269598288557     -0.62651934674789
  H          -1.65104223982210     -1.58394159427901     -2.37806107189104
  C          -1.24097378236134      2.07083994194724      1.49954513744216
  H          -2.12941982995218      2.35042768311534      2.06299648674044
  H          -0.69282165196532      2.97230018035882      1.21397059850397
  H          -0.60223942416255      1.43686414969685      2.12054361712212
  Cl          1.91071307241459     -2.95751960601604      1.21980882442908
  Cl          3.15650429958964     -1.24664871566362     -0.74082710579323
  Cl          2.46704738083212     -0.21362678755571      1.86216443091030
