75
Coordinates from ORCA-job A3R E -104.189031850640
  Ru          2.16316869915833      3.28841001113673     -0.14423555145295
  H           0.80172376450057      2.08491559964082     -0.22384299398293
  N           2.51472976115372      2.15558509138592      1.60664931718194
  C           2.88461697796825      0.84259217753769      1.41651328351286
  C           2.19803927811250      2.58575396825490      2.83484197233721
  C           2.83775021506570     -0.05231342442047      2.52725356953048
  C           2.16517896491686      1.75315775230337      3.93392211499107
  C           2.48179740620253      0.39699333891869      3.76151920408716
  H           3.09912278736552     -1.08583858187635      2.35759925401251
  H           1.90623039737972      2.14215640405942      4.90512741134718
  H           2.44823736465778     -0.27415333292543      4.60725343283848
  P           3.58987184451935      1.68597134664979     -1.03342228135317
  C           3.28051542692640      0.96010300825055     -2.75922243784614
  C           5.45731095878299      2.07740968780757     -0.84339494203527
  P           1.14048272960035      4.61626707628880      1.39543056671406
  O           1.53322135838383      6.17985850214923      1.55636924865173
  O          -0.47139966864104      4.62631362370010      1.65982845998991
  C           3.24292496477335      0.40644021170596      0.14116749391771
  H           1.26536903970987     -0.07760229623489     -0.05913001157356
  H           3.64364488892328     -0.59139290935625      0.02212317841665
  C           1.89417712452746      4.04931569186941      2.98005411792697
  H           1.26199236437441      4.24836109510332      3.84791934712659
  H           2.82963177931241      4.60713733302023      3.08831131690389
  C           1.79527506318698      4.21990852008525     -1.68615073639831
  O           1.57391831808799      4.84454782747614     -2.63360385291719
  H           3.34434233564395      4.21663743860542      0.11012032292088
  C           3.67599490956540     -0.51168079498724     -2.86153526997486
  C           1.77650110417185      1.06977175969332     -3.02590899436015
  C           3.99442206719094      1.79760308751834     -3.81854849847617
  H           3.07253723500113     -1.11611827920908     -2.18840840055465
  H           3.49428542652328     -0.86094223582262     -3.87777511873094
  H           4.72421426254402     -0.67337980722705     -2.63197632131221
  H           1.43538229807637      2.10257612289824     -2.92997326399390
  H           1.55866261820406      0.74082349521282     -4.04170359954077
  H           1.20528677035974      0.44118107025460     -2.34892994838658
  H           3.80040516669435      2.85630044471120     -3.64866244637123
  H           5.06657706401691      1.62436961479738     -3.82003124252687
  H           3.61663718476197      1.53706868437596     -4.80717657794969
  C           5.66472943820684      2.30692077925925      0.65669973482847
  C           6.36488721045210      0.92631916657697     -1.27125103434369
  C           5.81898126459474      3.36939226340586     -1.57567275046265
  H           5.47817984807188      1.39697003681423      1.22431297494291
  H           6.69036855242575      2.62089439734162      0.84649053769719
  H           4.99478531611633      3.08842600259568      1.01713752710820
  H           6.36890374360240      0.78542215405432     -2.34861246663249
  H           7.38831030939438      1.14050661788779     -0.96270347323816
  H           6.05792500569381     -0.00140289338252     -0.79096349706047
  H           5.94207552172181      3.21679473756804     -2.64250014489676
  H           5.03788607444173      4.11424063076573     -1.41526200367854
  H           6.75626879036469      3.76402393615854     -1.18498532898544
  C          -1.07414809703879      5.36812949277593      2.71124529527625
  H          -0.43051558846500      6.18883574328924      3.03392972854712
  H          -2.01120190148361      5.77085465981762      2.32561733169384
  H          -1.28604054352466      4.71157359545550      3.55746310425590
  C           1.59824255859065      7.02080420820137      0.41287898132265
  H           2.21080424525477      6.55286211708185     -0.36436322582894
  H           0.60190390416085      7.22566890974732      0.01468952772060
  H           2.06132986348473      7.95163263333987      0.73909887413093
  C          -0.07436760443202      1.34216994452667     -0.15998740048025
  O           0.36742369418529      0.04258913425191     -0.43854724666339
  C          -1.09242076097830      1.77950018335035     -1.18692402493865
  C          -1.32527608126148      3.13003634457959     -1.40867183971601
  C          -2.27580572848578      3.53207667284304     -2.32799733253319
  C          -3.00166796639938      2.58718975814387     -3.03484577397821
  C          -2.77471554880317      1.24014354852106     -2.81444365063414
  C          -1.82613371104912      0.83604636041327     -1.89175392784795
  C          -0.70051308943386      1.39967144296763      1.23837065683032
  H          -0.75543651880669      3.87158735237963     -0.85783017684084
  H          -2.44560141326209      4.58487132186847     -2.49932387276859
  H          -3.73977696755721      2.90212941804078     -3.75782466723830
  H          -3.33704013564575      0.49928763027269     -3.36374795543649
  H          -1.63720408238371     -0.21148565488783     -1.71638651384960
  H          -1.53338810074177      0.69851566368162      1.26612563527980
  H          -1.06927035585170      2.39779462135010      1.45284532919747
  H           0.02038860313826      1.10392874559117      1.99962194655141
