75
Coordinates from ORCA-job A3S E -104.187339205860
  Ru          1.95219396566348      3.53435784331862     -0.29795301732799
  H           0.44827133719069      2.42462227663313     -0.08623753939162
  N           2.30961594776206      2.60479227089051      1.54452906901320
  C           2.62844550555109      1.26721719717066      1.50073494070416
  C           2.02626880039052      3.18472432526964      2.71741078165125
  C           2.62860165157960      0.52089955612948      2.71251510563454
  C           2.04405919422927      2.49532703903733      3.91202239075691
  C           2.34509977574108      1.12814791412910      3.89795660879481
  H           2.86587398769076     -0.53095331078101      2.66192928557370
  H           1.81921445404203      3.00393693122204      4.83484570314271
  H           2.35273257337099      0.56939047322147      4.82207248749323
  P           3.29405375795295      1.78232614233723     -1.04432800058483
  C           2.95910205543146      0.90778191825486     -2.70055124081431
  C           5.18695533409472      2.07312158127512     -0.87873168764607
  P           1.10058745692218      5.15494621434329      1.04730199108715
  O           1.57413421991464      6.69787305601764      0.89013840338826
  O          -0.43160331628547      5.49568431069197      1.42940841511181
  C           2.89417506962336      0.65621612670584      0.26781870802076
  H           1.09421304874798      0.25731627485726     -0.19719009978339
  H           3.28825923737157     -0.35291091400184      0.27213246595677
  C           1.70751516234054      4.65487407778819      2.71333243359451
  H           0.97592584723880      4.91064978220517      3.48247261174206
  H           2.62416356954414      5.22710504600508      2.89886179030136
  C           1.49176106628786      4.33346061205797     -1.88914268655853
  O           1.17509905099903      4.91765024074006     -2.83756178094527
  H           3.22170844346630      4.35660399217656     -0.23010394925929
  C           3.14464517518186     -0.60393739219597     -2.58808012679139
  C           1.50711226356220      1.20160158952623     -3.09068368400608
  C           3.82957889640551      1.48530809775674     -3.81592828290409
  H           2.40488377654633     -1.03086478570822     -1.91478688770981
  H           3.00758345459472     -1.05896220910482     -3.56876808678475
  H           4.13637974711848     -0.86500711541393     -2.23016465091696
  H           1.34957105768579      2.27621849349906     -3.18747042691361
  H           1.28889483417366      0.74193990996943     -4.05449294868624
  H           0.80476671459058      0.79777974977334     -2.36785454284754
  H           3.76527530291399      2.57222661872677     -3.81288549765308
  H           4.86880785393284      1.18443903684713     -3.72961885943628
  H           3.46451687827581      1.12783452980224     -4.77899821158114
  C           5.41411449346551      2.48538301651002      0.57954235001491
  C           6.00525381656750      0.80746246013831     -1.12889351719287
  C           5.65124593632271      3.22596928132532     -1.77010220359211
  H           5.15771986305585      1.67929891642461      1.26436818299635
  H           6.46306340187521      2.73675932759607      0.73285446278594
  H           4.81265430660403      3.36048940422288      0.82949587519354
  H           5.98289308605279      0.49625274200618     -2.16909715361278
  H           7.04573166651179      0.99224260571871     -0.86143741081794
  H           5.64116711359897     -0.00982405237754     -0.50848645477883
  H           5.81920382477094      2.91274974965292     -2.79456143112803
  H           4.90475056151319      4.02148076052565     -1.76193853433417
  H           6.58816979172632      3.63178698136325     -1.38999092998883
  C          -1.28576046220491      5.97772124285391      0.40218213857064
  H          -1.08066722027014      7.03014597469656      0.20114349603395
  H          -1.15009835961332      5.40853534199647     -0.52387099804954
  H          -2.30966686802503      5.86529704953601      0.75968396317831
  C           2.75515211636051      7.12385141329379      0.23822903397224
  H           3.60739913907178      7.08482189224187      0.91996011946149
  H           2.96404378268188      6.49782145157239     -0.63516247941208
  H           2.58596818314139      8.15456335682594     -0.07442544612232
  C          -0.31892414104822      1.56647650719022      0.08632549962542
  O           0.14941165180946      0.38988154572857     -0.49065070274864
  C          -0.58587383798355      1.38195655528888      1.56983517549287
  C          -0.96131148274975      2.44553416580632      2.37819073385676
  C          -1.25375583727468      2.24616722017207      3.71469253125287
  C          -1.17707634031892      0.97824822776853      4.26362139521925
  C          -0.81278933943427     -0.08922308314286      3.46306665577930
  C          -0.52160312066957      0.11013960668045      2.12621085086675
  C          -1.60609133624986      1.97148709181888     -0.63504001404512
  H          -1.02477731896922      3.43964262882338      1.96698835549723
  H          -1.54197502171323      3.08749816005936      4.32816847730637
  H          -1.40281112208555      0.82333194118425      5.30838795228662
  H          -0.75483644509590     -1.08443975839995      3.87881450356337
  H          -0.25346290042592     -0.72959377079664      1.50258490986726
  H          -2.32444709916197      1.15916389893848     -0.54559902118860
  H          -1.40291659888625      2.14268133803263     -1.68994404180333
  H          -2.02803103479295      2.87095130755075     -0.19529730743120
