26
Coordinates from ORCA-job NEB E -42.778636086550
  C           0.36068358112985     -0.34536973300553      0.06411987018926
  C          -0.85137340908902     -0.64905899519036     -0.58522309151844
  C           0.39936990724876     -0.50175070923199      1.56445008685643
  H           1.28640424897505     -0.62481877307058     -0.42726762640235
  O          -0.93462621039792     -0.95802951241450     -1.90884632098160
  C           0.20814525165409      1.59422908564287     -0.26012055095429
  C          -0.99336563699984      1.95549864323732      0.35941019942463
  C          -2.17176331625532      1.38375933264271     -0.17681032835799
  O          -1.95817277912145     -0.26835962938832     -0.05914825151886
  N           1.44955978258899      2.08905260905650      0.27973528588415
  H           0.25816653447054      1.56075902168402     -1.34441079990614
  H          -0.95540529297848      2.25420638627378      1.39569491084702
  H          -2.30731066287296      1.44843748800178     -1.25236380799689
  H          -3.08964410440440      1.53284725243780      0.37567080392892
  C           0.72831844664252     -1.94949803976337      1.92725574054373
  H          -0.57528547407401     -0.23828588738857      1.97624681891610
  H           1.15110768833221      0.15343306858491      2.00660047239381
  H          -0.02704999492381     -2.62247690410443      1.52762133257331
  H           0.75593232843309     -2.06207028620004      3.00762845918144
  H           1.69881700127370     -2.23762690707503      1.52820099858722
  C           0.21006357589264     -1.41845648792817     -2.59292535699776
  H           0.68458076320784     -2.24708787688685     -2.06036342038953
  H           0.93943197186322     -0.61814821133858     -2.74713553370122
  H          -0.14722034003981     -1.76732429558720     -3.56022646480280
  O           2.38235684447181      2.16318043602719     -0.49209713607059
  O           1.49827929497271      2.37295892498462      1.45430371027243
