26
Coordinates from ORCA-job NEB_reactant E -42.795912102910
  C           2.05025042332728      0.27952790444299     -0.21997885150729
  C           1.74693756240078      0.66642396891462     -1.45806831281552
  C           2.02065537230014      0.96679790166910      1.11059768881850
  H           2.39453475607096     -0.74406975709366     -0.17268211722025
  O           1.88256448095330     -0.27283763130755     -2.44134608100177
  C           3.12867350214809      4.32091497232402      0.04276392633562
  C           2.79980064744618      3.35517879693646     -0.80722486159914
  C           1.41267669730319      3.06063504266698     -1.26980879119476
  O           1.28835337949149      1.85518705330990     -1.97262122599249
  N           4.49252216637522      4.53438939493918      0.42607519837176
  H           2.43804405695897      5.00665592722519      0.50904570379142
  H           3.58423832931388      2.72609363807087     -1.21227649382050
  H           1.11367143709101      3.82437858630757     -2.00105490014206
  H           0.69752427876877      3.11056020274046     -0.43697467036798
  C           3.41450508006527      0.98715895776035      1.74315876338391
  H           1.35306446654677      0.40053637621136      1.76807090896369
  H           1.63356096499538      1.98159932078049      1.05678319891005
  H           3.78012600249836     -0.02723798142089      1.87893946253522
  H           3.38315904474754      1.47545480422411      2.71463913481113
  H           4.12208015268641      1.51824137735598      1.11088738174496
  C           1.54673722795953      0.08831400718237     -3.76413736107964
  H           1.72355192354013     -0.80690302738982     -4.35711327117170
  H           2.17654094718991      0.90323833147173     -4.13142290563844
  H           0.49765336968846      0.38419823728882     -3.84412792169929
  O           5.33739061990190      3.78510939010268     -0.01343092973383
  O           4.70438311023109      5.46055420528670      1.17800732731841
