17
Coordinates from ORCA-job NEB E -34.600951918290
  C           1.12018733279350      0.33028779901969     -0.30431557979889
  C           0.34036916994384      1.41796978932967      0.03996718613940
  C           0.86543279219629     -0.31846357799739     -1.63808836229956
  H           2.16614229370582      0.34796428157218     -0.02114963203266
  F           0.84197771070659      2.22789220590293      1.02323931629427
  C           0.21940984053956     -1.00123427460464      0.95494115293803
  C          -1.10736174458138     -0.84138370150351      0.62373984483115
  C          -1.71588799499357      0.42958199097879      0.86403941905402
  O          -0.92192211150419      1.46304794192733     -0.12031105773910
  H           0.72369867310325     -1.91915587473178      0.69529954704504
  H           0.60037147765472     -0.51775285078896      1.84351033304466
  H          -1.54641618300731     -1.48074587558481     -0.12822838357819
  H          -1.52732596041472      0.88076003895306      1.83459966964421
  H          -2.73957105663121      0.55720419697256      0.53483570544678
  F           1.57272340872140      0.32743239966542     -2.60075005853313
  F           1.30160485526699     -1.59891845945253     -1.66708319447562
  H          -0.19343250349960     -0.30448602965802     -1.93424590598041
