17
Coordinates from ORCA-job NEB_reactant E -34.624867378810
  C           1.71786197370669      0.03914908671583     -0.03434710181556
  C           1.07506802117506     -0.21631876133651      1.10751243996347
  C           2.05385291179810     -1.04599883818973     -1.00083912770961
  H           2.00782074761609      1.04644936479408     -0.26555876529789
  F           0.79553107596263      0.80539291632617      1.94011813697351
  C          -0.33452749995608     -3.57296392604239      4.10114168033203
  C          -0.39357507807821     -2.94918946680466      2.94104019478984
  C          -0.03567544360920     -1.50933476721418      2.74721596204114
  O           0.67334652612022     -1.39992849146005      1.51222153024044
  H          -0.62148994965327     -4.60463207700504      4.20204068481716
  H          -0.00783081574521     -3.07589676888849      4.99989291665019
  H          -0.71352877467553     -3.45173179876879      2.04021307638545
  H           0.58361455365368     -1.13908755677376      3.57255903243134
  H          -0.94904960111380     -0.89869976041094      2.69526910578180
  F           2.88088126744868     -1.97828858464890     -0.45348717742470
  F           0.94920956069001     -1.73409594679271     -1.39727278822551
  H           2.54619052466014     -0.66232462349995     -1.90681979993310
