23
Coordinates from ORCA-job NEB E -44.519305108190
  C           0.50801240683861      0.34516040794857     -0.65785747208918
  C          -0.38869566688106      1.40060945975724     -0.81332941000205
  C           0.05246248494379     -1.03087739834065     -1.08267111723694
  H           1.54625149566753      0.55348338744009     -0.89827825540836
  Br          0.39129378077252      3.19980787786553     -0.84144731824098
  C           0.45140481495428      0.33654110281420      1.31693998237655
  C          -0.90572807810078      0.24780649228530      1.61394929798875
  C          -1.74526786745964      1.31881828481875      1.17562589153879
  O          -1.60139898171346      1.33707325194373     -0.42176183592522
  C           1.34993030483148     -0.78228545110241      1.77361963944304
  H           0.95309793903447      1.29269327683673      1.44154973248677
  H          -1.34414648191004     -0.72736286894751      1.76419001849885
  H          -1.41148900468743      2.32386356328364      1.43039408640307
  H          -2.81023876026554      1.18662556511337      1.32312801237448
  C           0.04925350996519     -1.11525755193001     -2.60886741143402
  H          -0.95215460818181     -1.22612323371345     -0.70527231365248
  H           0.72991631932494     -1.78831475826785     -0.69057899332898
  H          -0.65473121004120     -0.39992860734649     -3.02746697341585
  H          -0.24120149264822     -2.11437418407140     -2.92223275471443
  H           1.03836213117134     -0.90285383843063     -3.00795486004696
  F           0.77015092873476     -1.98927419544323      1.73898175827656
  F           2.47763570643122     -0.87889090584439      1.05311630933951
  F           1.73728032921904     -0.58693967666911      3.04622398676908
