23
Coordinates from ORCA-job NEB_reactant E -44.540636224820
  C           2.22289113562498     -0.57836875501223     -0.36796274678939
  C           2.59943784763145     -0.69431548103790      0.89703923573287
  C           0.96059828769505     -1.16424229365931     -0.91706657509670
  H           2.85136134514974     -0.03458898280914     -1.05517342734479
  Br          4.27619829116100      0.09386139011005      1.46285849965133
  C           3.98276468719717     -1.51589771935974      4.78996241106670
  C           2.96366789932545     -1.19327138923733      4.01073997317664
  C           2.49113320218537     -2.02972313919889      2.86063629400592
  O           1.84821131036216     -1.26087349417138      1.86040005650575
  C           4.39059496677486     -0.69457019308563      5.97059544016912
  H           4.58832861414367     -2.39692396997728      4.64212670584765
  H           2.38916607328700     -0.29427579460237      4.19192224487045
  H           1.71311595849596     -2.71216522608666      3.22318435835366
  H           3.31104626744545     -2.62418949770317      2.44124550193529
  C           1.24265857888233     -2.00865329780905     -2.15783689849074
  H           0.28412035033260     -0.34803971922092     -1.18585778897662
  H           0.47346161788713     -1.76651184805923     -0.14946192511768
  H           1.71397069523834     -1.40606858553686     -2.93066046277430
  H           0.31558328517835     -2.41497686708143     -2.55407592749225
  H           1.90564993310175     -2.83567349206810     -1.91448545493935
  F           3.69531307854292      0.44184936399007      6.09799413702286
  F           4.22309342666621     -1.37265755626219      7.12464111330806
  F           5.68803314769106     -0.35472345212131      5.92713523537551
