23
Coordinates from ORCA-job NEB_product E -44.562291691010
  C           2.65546521120825     -0.25185522946216      1.55178968801905
  C           1.56954797872870      0.75364427304705      1.80074621901230
  C           2.38635261030880     -0.90829038865992      0.17996208173309
  H           3.60490816335007      0.29067831094872      1.48162307856512
  Br          1.77236654553229      2.35002360162219      0.67604248537260
  C           2.69798686236554     -1.23194974930787      2.75718521773813
  C           2.08381080844971     -2.58122260261266      2.49552538408760
  C           0.88910502829491     -2.92272699698445      2.93832526781019
  O           0.65164707270443      0.69627427505097      2.54037230040571
  C           4.12595274680831     -1.41244780805783      3.25988250277451
  H           2.15888154418149     -0.76604530193188      3.59167684780817
  H           2.68814621327703     -3.27370658247300      1.92707775214632
  H           0.27872595924537     -2.24211089600289      3.50829384763848
  H           0.47165784901855     -3.89394701898232      2.73894732589575
  C           3.62377210737692     -1.56112470566128     -0.42240972999703
  H           2.04584865487169     -0.13361946053645     -0.51054272786395
  H           1.58163203306716     -1.63795075406855      0.28590315696715
  H           4.42119805131775     -0.83142403278485     -0.53921851798240
  H           3.37870234116876     -1.95797648939171     -1.40418295598111
  H           3.99431873857371     -2.37590120134049      0.19065184747204
  F           4.93230599763582     -2.03619880359596      2.39115256954795
  F           4.71311170670049     -0.23597151726669      3.53805070536967
  F           4.15785577581425     -2.13065092154797      4.38994565346065
