29
Coordinates from ORCA-job NEB_product E -45.334307953030
  C           2.18102776861845      0.50071820630922     -2.12412082699958
  C           0.88641614567636     -0.25994214457833     -2.47814605135590
  C           2.04530042326413      0.97371320153006     -0.68735296540271
  H           3.04252791775346     -0.17355647041323     -2.16921660219053
  C           1.06890169243391     -1.71150648833315     -2.83499986159014
  C           2.34128273987081      1.65261198126492     -3.14271413809800
  C           3.50806092114401      2.54378972152476     -2.83736593241250
  C           3.40024286338048      3.84763083313164     -2.66063632656378
  O          -0.17333869102815      0.30555433832372     -2.46270285272223
  C           2.44147628055877      1.10741083333461     -4.58159787732415
  H           1.42197653134060      2.24914771453921     -3.10103626549780
  H           4.47570477700767      2.06289096468913     -2.79501149611922
  H           2.44706910509838      4.35007762290948     -2.69606174510804
  H           4.25919984468860      4.46521364308040     -2.46378340413109
  Br          1.45228529492905     -0.53051879686521      0.44331692427144
  Br          3.75378013091578      1.54716454091946      0.07663531652697
  Br          0.76900610862893      2.40456346100688     -0.45182342134512
  C          -0.26233615236173     -2.40608438871099     -3.08477290381254
  H           1.61203798800190     -2.20688222858744     -2.02579813455481
  H           1.70153724091935     -1.75972705114473     -3.72579674530247
  H          -0.87518714549667     -2.37232287145016     -2.18777821000493
  H          -0.10099787852127     -3.44428432008130     -3.36102522438920
  H          -0.80462673481708     -1.90741953462106     -3.88413365793288
  C           3.68867447192343      0.28401776528787     -4.88568470015028
  H           2.42479047897002      1.96979677126345     -5.25148268621932
  H           1.54812544657184      0.51524821530064     -4.79486202609007
  H           4.58666672572700      0.88701032360353     -4.78337468349123
  H           3.64257606620046     -0.07517618940295     -5.91122932805663
  H           3.77861963860151     -0.58183965383042     -4.23334417393328
