29
Coordinates from ORCA-job NEB_reactant E -45.328595417510
  C           1.03381749428389      0.14452063750851     -0.25760433318963
  C           2.05770816533959      0.15506677530238     -1.13305833562386
  C           0.54369206685946      1.38859858468213      0.34271975590379
  H           0.55145524474855     -0.77740308152105      0.01759969460783
  C           2.52624250621102     -1.12170455353880     -1.76900645908731
  C           2.19067938580882      1.52531147271928     -4.23913800821727
  C           3.38352968059174      1.29342808652790     -3.71555964615426
  C           3.70504139691387      1.51600925464460     -2.26239735749107
  O           2.59724867188504      1.35887039254222     -1.39390264839028
  C           1.79305071854149      1.35013206173421     -5.67005406323076
  H           1.39475168147545      1.88680801665269     -3.59890702700046
  H           4.21392361155768      0.94860061887681     -4.31230522686454
  H           4.00847129197905      2.55766609462016     -2.10319236818125
  H           4.53571725772026      0.87486935952490     -1.94241464291387
  Br         -0.93559276445015      1.06729313574204      1.55953241957933
  Br          1.95790560298643      2.33562610524031      1.35599423656784
  Br         -0.08408273988238      2.67068162629692     -1.02569025039259
  C           1.52398037463552     -1.61895860504760     -2.81345876860600
  H           2.63485078791145     -1.87729446055232     -0.98799948679008
  H           3.49572607084336     -0.98278566777295     -2.24464292550743
  H           0.55042268332334     -1.78815300239690     -2.36125204322858
  H           1.87389966717291     -2.55392155894276     -3.24347954764483
  H           1.41392574613434     -0.88860443226247     -3.61069727365367
  C           2.87331875548145      0.77662670122622     -6.57721006033649
  H           1.48009238121223      2.32853752120679     -6.04759124557711
  H           0.90702131527768      0.70772773335174     -5.70528796200313
  H           3.73919356022922      1.43332695861461     -6.60808037491684
  H           2.48925025913463      0.67183702166343     -7.58902395546035
  H           3.18925912607404     -0.20441279664299     -6.22919209619714
