23
Coordinates from ORCA-job NEB_reactant E -36.078434342300
  C           2.17510678571760     -0.12451802469244      0.67680028231770
  C           1.44291308117983     -0.77162735402685      1.57933232978315
  Br          3.25405242547424     -0.80631314770111     -0.72069220475916
  H           2.18808856763622      0.95186782357055      0.68820902336269
  C           0.64617133756304      0.02790166515401      2.59386952905027
  C           3.96183609896229     -2.56395607449288      2.45658121961255
  C           3.38492003855157     -3.14267210483636      1.41720218158834
  C           1.91121540180882     -3.09728574793083      1.12975017500256
  O           1.20749258714146     -2.07951888724443      1.82646761282479
  C           5.42415329181814     -2.55749325757770      2.77251216316839
  H           3.35189316662398     -2.02239328211261      3.17076039058342
  H           3.95368902571204     -3.69475689369118      0.68588919175166
  H           1.43499316872810     -4.02207636730193      1.47665362100615
  H           1.73622965754780     -3.01622913996222      0.05103906375965
  F           0.74673817207697      1.37469357673360      2.40267409917410
  H           1.00716533180748     -0.18748981811131      3.60595868951180
  H          -0.41389761087118     -0.23875192079990      2.52165012763721
  C           6.30486838902453     -3.26537673547054      1.75239602745432
  H           5.56106484971529     -3.01556440768442      3.75768495365384
  H           5.74409090846578     -1.51438938079716      2.86457847416839
  H           6.04332422038517     -4.31835600121722      1.68148305722720
  H           7.34824951648991     -3.19170798377439      2.04997469343400
  H           6.19464158844092     -2.80928653603268      0.77162529868696
