22
Coordinates from ORCA-job NEB_product E -59.808163377340
  C           2.49644034193089     -1.85182613352809     -0.53027796312545
  C           1.53628241557569     -1.36931247783600      0.54451490041473
  N           2.51685220907457     -0.78968253147182     -1.59639180883503
  H           3.51807132324626     -1.93694092486510     -0.14956302593840
  C           2.14470653901533     -1.36435981395097      1.95862485048230
  C           2.00337560089401     -3.22967098713397     -1.04813206783060
  C           0.69023921906842     -3.14417682828319     -1.77815510045695
  C          -0.46321546785113     -3.41434715756467     -1.19580012074617
  O           0.42026428193110     -1.01268594915339      0.33341055071656
  C           3.07525228413380     -3.90557094027295     -1.91156168758913
  H           1.87611299182448     -3.86192761373137     -0.16144015146288
  H           0.73265485844655     -2.82971258677463     -2.80881119306603
  H          -0.53001004499177     -3.72660459172707     -0.16659502578813
  H          -1.39082069659974     -3.32723272506253     -1.73158008057465
  O           3.55121632942185     -0.18481637631093     -1.68783956034223
  O           1.51319492194727     -0.59793575387546     -2.21713869261282
  Cl          3.45533924266318     -0.15020286833154      1.95234714752178
  Cl          0.92663769176469     -0.93877329999816      3.15817422193400
  Cl          2.81710130303921     -2.96970124817597      2.32501697881128
  Cl          2.46383645199077     -5.49462874191587     -2.42466647220603
  Cl          3.47381092819228     -2.94803102713460     -3.35659177315637
  Cl          4.56955727528229     -4.16165942290173     -0.97024392614981
