19
Coordinates from ORCA-job NEB E -41.710984823250
  C          -0.38529411037316     -1.37742275532657     -0.29540689857239
  C          -1.42088461417474     -1.05542862777712      0.59777591377505
  N           0.74587663750600     -1.96982437175693      0.18825674124264
  H          -0.66439630060535     -1.66282582727802     -1.30137897297333
  F          -2.62935401906266     -0.80236804915424     -0.02216945894177
  C          -0.00311330260054      0.71259256214261     -0.54993992565083
  C           0.25843293549255      1.11032092823994      0.75880613018875
  C          -0.78686356517376      1.15142232822193      1.68212972138675
  O          -1.26675437785498     -0.59861567651411      1.74186108933587
  C           1.07036340706036      0.78969455696161     -1.58457971081667
  H          -0.97865459421972      0.93513673781686     -0.96741664538646
  H           1.27503282651017      1.06190285875953      1.12156585644661
  H          -1.75807898456915      1.49712870110281      1.35761908293770
  H          -0.56271953556868      1.33912989905617      2.71982666108980
  H           1.52791460909104     -2.04577922851433     -0.44251384847207
  H           0.99288693348725     -1.71030148936102      1.13290011824750
  Cl          1.27312329130333      2.51755206699106     -2.07038268439180
  Cl          2.65215573003743      0.22570332697718     -1.00764317432304
  Cl          0.66032703371462     -0.11801794058735     -3.05930999512230
