19
Coordinates from ORCA-job NEB_product E -41.747188628870
  C           2.06998220709220      1.78318660469294     -1.05631276030545
  C           0.68711854362000      1.73085383552745     -1.67540725883069
  N           2.03992763687671      1.00581383096965      0.17229294324904
  H           2.80523634444924      1.33175230764121     -1.72971526296582
  F           0.63760934710970      0.84680948247270     -2.71202406862547
  C           2.46051948092083      3.23867966448175     -0.72720091218696
  C           3.56733697910312      3.26941309001502      0.29099198614208
  C           3.51700763174527      3.99313918877975      1.39192449337869
  O          -0.31258367161892      2.21724401395845     -1.27356379420716
  C           2.88457728628258      3.98243377235819     -1.99377396974836
  H           1.57926613077660      3.75325582088021     -0.32692438809803
  H           4.42185476439614      2.65184439080220      0.06279170543732
  H           2.66787184144121      4.61191813871797      1.63139413299582
  H           4.32730533073231      3.99816801968279      2.09921861234939
  H           1.81880554004938      0.03455534607812     -0.01453206649049
  H           1.35506903103810      1.37979968991568      0.82022691385934
  Cl          1.60373079180979      3.88544012502368     -3.23572256775208
  Cl          3.17550739337091      5.69280198007325     -1.62026036013923
  Cl          4.37105739080482      3.30199069792898     -2.68600337806194
