19
Coordinates from ORCA-job NEB_reactant E -41.732167091080
  C           1.81421343759349      0.06207152060780     -0.01678638492364
  C           2.29080879034091      1.26873394958289     -0.31144949549873
  N           0.95860234962799     -0.20296965864470      1.04330564828939
  H           2.14455180428390     -0.78474806339823     -0.59588142016924
  F           3.23304192521927      1.40390633348557     -1.28617133822362
  C           2.65337718645386      4.37780075613230     -1.62744715082771
  C           3.32689817744938      4.27313287593177     -0.49336065384593
  C           2.95527636193421      3.33150856004462      0.61162653963684
  O           1.91049436346415      2.43131043484984      0.27907857116147
  C           2.97592723442584      5.29403685683480     -2.74728077646710
  H           1.78287287100369      3.76282559868620     -1.81104164440391
  H           4.19786694536066      4.87933343446411     -0.29331091988025
  H           2.58274427960428      3.91207139642333      1.46348392041255
  H           3.84837234670575      2.78105918623830      0.93528068821214
  H           0.26792164901100     -0.91377926156269      0.85324157464875
  H           0.55506603124032      0.63231656618271      1.44377883110418
  Cl          1.57914747086082      6.37667518126826     -3.04046434769931
  Cl          4.39752257321078      6.30442815705720     -2.45923785034289
  Cl          3.25789420220967      4.34398617581591     -4.23566379118299
