26
Coordinates from ORCA-job NEB E -42.121152759190
  C          -0.16648558915186      0.40050948561570      0.89224421440665
  C          -1.54909861254278      0.20814914994203      0.73464295200518
  C           0.29814644015574      1.81681710353945      1.15163088065926
  H           0.32012521602707     -0.31689880250808      1.54870978767320
  C          -2.20492909887524     -1.03510231973546      1.22958243963838
  C           0.56172093013616      0.04165682894283     -0.87499633653915
  C          -0.54129381573912     -0.09853556030750     -1.72102936826342
  C          -1.54451803417913      0.92388584463515     -1.64370418289485
  O          -2.20655586897241      0.82750512514334     -0.21085245360405
  C           1.56267686550831     -1.08591657234747     -0.76732583170933
  H           1.03384356761008      1.01730310523728     -0.92320220338892
  H          -0.85365562735535     -1.09019143376836     -2.01879520936924
  H          -2.40493186464141      0.80638020939912     -2.29489326011299
  H          -1.16531802908932      1.94520224525167     -1.65824136414177
  H          -0.19005018311856      2.52523597776598      0.48745320230196
  H           1.37665843211568      1.90517615725769      1.05290912452993
  H           0.03384564716285      2.07997898525584      2.17673254307655
  Br         -1.78925928746412     -1.37582941426756      3.09129624018754
  Br         -4.12034591347364     -0.90946354695031      1.01264543618389
  Br         -1.62271058666081     -2.70572242658789      0.20573546639263
  C           2.81563786924877     -0.70508943242150      0.01239123926178
  H           1.85246176152187     -1.36822872361536     -1.78297764252774
  H           1.09815725395972     -1.96370804930163     -0.31646137365288
  H           2.58380858844660     -0.46965095837764      1.04813578692979
  H           3.52119220837112     -1.53186181093444      0.00686594073667
  H           3.30087773099980      0.15839883313710     -0.43849602777908
