26
Coordinates from ORCA-job NEB_product E -42.163867918310
  C           2.88616018059494     -1.30050269778813     -1.34015030932706
  C           1.59898252733462     -2.06943711535065     -1.38103503730146
  C           2.52418873788364      0.13578124468275     -0.92898491804844
  H           3.56055373587303     -1.72556922645872     -0.59097903235073
  C           1.35375566078986     -3.05146558191922     -0.22068266563765
  C           3.62205477645671     -1.28342123294452     -2.70606293476185
  C           2.76834795371920     -0.71818092007401     -3.80391189306481
  C           2.94562702976932      0.47940567581130     -4.32954666743022
  O           0.74097915735049     -1.97029125517903     -2.20950231275668
  C           4.13664481367957     -2.67136838806826     -3.11633061484910
  H           4.48725701764046     -0.62505970759032     -2.56741734517845
  H           1.98379810286315     -1.36417503641215     -4.17050332727927
  H           2.32419018035989      0.84727881602772     -5.12764068101898
  H           3.72303606898685      1.14383974626710     -3.98697976974401
  H           1.84144888666053      0.56875999681776     -1.65607065500030
  H           3.42911288268689      0.73685175447511     -0.89694210316614
  H           2.05983944494456      0.16628708974421      0.05382654105543
  Br          1.73879944599275     -2.28054392732623      1.51999236627032
  Br         -0.49290945743652     -3.64346335589847     -0.25804310612314
  Br          2.51870976133833     -4.59567690993302     -0.47962278054744
  C           5.34750170034870     -3.12776743027528     -2.31130645999794
  H           4.42114927605983     -2.62165088620558     -4.16987240545106
  H           3.33267969854344     -3.40600280822379     -3.03575560033548
  H           5.12072408707361     -3.22446714489422     -1.25294985571016
  H           5.68360216713642     -4.09818059486206     -2.66668590741517
  H           6.16496616334974     -2.41908010442230     -2.42404252483023
