26
Coordinates from ORCA-job NEB E -52.535514174730
  C          -0.12033888294296     -0.96008144233281     -0.38154965321406
  C          -1.51557587632894     -0.83473851737457     -0.32866489930915
  C           0.53207719287066     -2.08739426512468      0.37289975804722
  H           0.32606137052747     -0.87138391000068     -1.36683356777342
  C          -2.18766635104458     -0.19850088933274     -1.54446579037710
  C           0.50460779079646      0.63190735777437      0.67722210262700
  C          -0.66195750684898      1.14819624133604      1.24564642855538
  C          -1.51331147859203      0.29015272301920      1.96830796854194
  O          -2.15180909459765     -0.76675208931268      0.78055875636176
  C           1.29019517288557      1.50119406109913     -0.27252266703257
  H           1.11854456106588      0.01922920452714      1.32814237001462
  H          -1.11495428119106      2.00211223674149      0.75575806812666
  H          -2.43758673131382      0.69863545978193      2.35438413137306
  H          -1.05763988825849     -0.44317026513965      2.62216025984920
  F           1.87317242956930     -2.01165934012907      0.35070721399876
  F           0.18748006739568     -2.19863577587573      1.65966388970558
  F           0.22484957218663     -3.26550023310683     -0.19994590184005
  F          -1.78737458638260      1.09663180260106     -1.69454532771400
  F          -1.82407234389230     -0.82790013885263     -2.68350925487586
  H          -3.28292069717374     -0.20832870289563     -1.46214774773412
  C           2.60363343279702      0.88523844577911     -0.73842465155821
  H           1.51064662232802      2.43230576037212      0.25743219848555
  H           0.66816466301815      1.76207021303581     -1.13068814958824
  H           3.21725201538714      0.60044284859923      0.11276266314999
  H           3.15742253114843      1.60558954082717     -1.33495858344204
  H           2.44110029659072      0.00033967398391     -1.34738961437790
