26
Coordinates from ORCA-job NEB_reactant E -52.568022438540
  C           1.74004120330478      0.61785148007512     -0.44759003190005
  C           0.88154000672631      1.61815269159115     -0.19568628990117
  C           3.03292778251964      0.25268874081043      0.19750886606067
  H           1.49365252364003     -0.06776868192295     -1.24218994402624
  C          -0.37335469779441      1.68655317750737     -1.06937288697188
  C           4.22677300010117      3.82292812345370      1.21564045962546
  C           2.96691267087457      3.76041064902182      0.82096426389225
  C           1.89656287312020      2.99443209771599      1.54261357313574
  O           0.83293809500117      2.61302407325193      0.67293565623533
  C           5.29298431720282      4.60805905111706      0.52666333006587
  H           4.54673054390060      3.26829851489113      2.08819697064776
  H           2.62395987955370      4.30552474524867     -0.04775323931716
  H           1.39458536648229      3.65042874876253      2.26389981404740
  H           2.30263778070228      2.13943585247762      2.08571383938547
  F           4.03076849179065      1.12856347806644     -0.01885684221907
  F           2.96568438798358      0.09186121651086      1.53448203004316
  F           3.46754009621632     -0.92059817601839     -0.28668819731052
  F          -1.48196405543499      1.73693863521862     -0.30368257475226
  F          -0.35813052198293      2.82021593122160     -1.80513304281905
  H          -0.47001826171259      0.83471592662035     -1.75772543125417
  C           6.46184297664398      3.70674251482156      0.13122113335828
  H           5.65540364916953      5.38582069402384      1.20531975074813
  H           4.88179678960988      5.09475837970524     -0.35896946724515
  H           6.90453443338423      3.24869472279738      1.01241470024358
  H           7.22816582083030      4.28257935162030     -0.38161366435781
  H           6.11648484816688      2.91508806141065     -0.52831277541459
