16
Coordinates from ORCA-job NEB E -30.614553570470
  C          -0.72138270903409      1.20722292307194     -1.21235334500123
  C           0.04804536028063      1.57120404888408     -0.08831012003554
  C           0.00060691134541      0.58803663256521     -2.21865509046085
  H          -1.49809830271714      1.87241827055089     -1.55370904304294
  O           0.93424608035257      2.53230018550574     -0.09155158374910
  C           0.55035340604052     -1.98972274605362      0.12411073726260
  C           0.02546736272499     -1.46683428479863      1.21953528084956
  C          -0.83201539081417     -0.23574693726730      1.16719873083147
  O           0.00395700812905      0.92843814265426      1.06075809242190
  I           1.79010050736358     -3.67530275762747      0.16894746835455
  H           0.39103721635630     -1.59598825329706     -0.86781147624550
  H           0.22388080809144     -1.88342590864682      2.19577722734770
  H          -1.41330909412878     -0.11537860147079      2.08184615606250
  H          -1.47386783023120     -0.23337356108441      0.26982591533956
  N           0.52191514944228     -0.09799084158972     -2.98969759549721
  H           1.44906351679860      2.59414368860371      0.73408864556252
