16
Coordinates from ORCA-job NEB_reactant E -30.690356715100
  C           1.70863210257538     -0.33206595637719      0.05796754218344
  C           1.70542210050317      0.01878908520127      1.35862908577640
  C           1.17894437502204     -1.48706816799364     -0.51403528490912
  H           2.15152795364461      0.36986104366475     -0.63275179190918
  O           2.22907628466248      1.20122563638397      1.71477038113423
  C           1.95734759321340     -3.96322922731635      1.42382705028910
  C           1.93490610826769     -2.93586727819740      2.24908438515129
  C           0.78165155769500     -1.97926591719460      2.34646017435509
  O           1.22465240125649     -0.63295107009980      2.43672963351707
  I           3.56174325186393     -5.30896469593544      1.34335966275188
  H           1.16673979504836     -4.19142897149892      0.73006940539482
  H           2.75630324533080     -2.72755042044671      2.92085130560267
  H           0.25069483735366     -2.14196935023644      3.29118138073990
  H           0.08254701633222     -2.10792888703280      1.51622665593842
  N           0.75611676166541     -2.41897937398528     -1.03939416092090
  H           2.14699461556539      1.31199355106455      2.67232457490491
