16
Coordinates from ORCA-job NEB_product E -30.704879712430
  C           1.61808312325428     -1.13574273550889      0.57660048648460
  C           2.64137025265605     -0.23074696326200      1.26717158861276
  C           1.94097340518470     -1.17704496274113     -0.83397589096907
  H           0.63848763725077     -0.64683742781668      0.67832838879766
  O           2.53638413449860      1.01441237217564      0.80925608607684
  C           1.53081867785903     -2.54879082360279      1.16196207856593
  C           1.10391296822003     -2.55133435285470      2.58670102725903
  C           0.05754193457672     -3.22812044537107      3.02460667272682
  O           3.42034222686041     -0.57452063175200      2.10539717779501
  I           3.44923617383888     -3.57763042248964      0.98661381052529
  H           0.84854632255508     -3.14335747701468      0.55094727993178
  H           1.72213449130018     -1.97539330432153      3.26047933026921
  H          -0.22575225929239     -3.21857362350738      4.06233827538023
  H          -0.55612981742485     -3.82090224397861      2.36517009948198
  N           2.19672165644084     -1.22732497751366     -1.94504546480796
  H           3.20222907222169      1.59470801955911      1.21224905386987
