21
Coordinates from ORCA-job NEB E -55.491882762290
  C           0.21745782721944      0.97031279728123     -0.30751581539299
  C          -1.05096531334771      0.98256183277129      0.29606464092796
  C           0.27684943426532      0.78729143804098     -1.81398590719222
  H           0.90114611416068      1.75671568083701      0.01541272429245
  N          -1.15891496284908      1.68822850677060      1.57341059063567
  C           0.88922231139495     -0.66770441897291      0.41890619613739
  C          -0.12420099549373     -1.58866531222603      0.15315083051419
  C          -1.45563500547274     -1.34251027901816      0.65549830793503
  O          -1.90390548669587      0.01896343616859      0.10697307727862
  N           2.20606129631138     -0.93326677895038     -0.20567420613784
  H           1.04407216459984     -0.26332617137131      1.41657538249337
  H           0.01648424078592     -2.25975779467775     -0.68448188960273
  H          -1.53383509010638     -1.20520022300567      1.73703650931417
  H          -2.20993334321213     -2.03287472670717      0.29017174254287
  F           1.53570303570088      0.72633046254918     -2.25421756702276
  F          -0.35186039661729     -0.30121202391311     -2.25734951172393
  F          -0.29109126465532      1.84036127709057     -2.41102546283567
  O          -2.01942397217479      1.29781724999179      2.32767591109679
  O          -0.36365519211292      2.57806026714512      1.78327302876610
  O           3.12641372347114     -0.30567634316284      0.24812507814933
  O           2.25001087482842     -1.74644887664103     -1.08802366017581
