21
Coordinates from ORCA-job NEB_product E -55.519322091870
  C           2.65614972865905     -1.08129627586738      0.60246669776968
  C           1.33260296680551     -0.64939490743290      1.16717765972703
  C           2.60713340845840     -1.01361725625101     -0.93414828968239
  H           3.44486756840616     -0.38522492481012      0.93528576257807
  N           1.41499933402361     -0.30759559529473      2.68567254929197
  C           3.06592876395638     -2.48431238144094      1.11014043735491
  C           2.35168100796869     -3.61952694732916      0.44019935717565
  C           1.32588037519248     -4.24382731188287      0.98756603865940
  O           0.28067255396418     -0.54078064670531      0.64600570439167
  N           4.56828125655879     -2.64328503338491      0.94724027033958
  H           2.91051172781652     -2.52111245759012      2.19619637533075
  H           2.72601440608163     -3.90579256767835     -0.53176860887312
  H           0.94147077673442     -3.98079293660670      1.95999211112608
  H           0.82621436516588     -5.04762286121055      0.47858680310989
  F           3.71780721352076     -1.52506802342139     -1.47464315051233
  F           1.58228308385706     -1.68071072915102     -1.46368259827212
  F           2.51329470874844      0.25315219561188     -1.34268421317290
  O           0.40217204881904      0.10383291246296      3.16737586722837
  O           2.47490939875141     -0.50172656080653      3.22843830072087
  O           5.23071064380128     -1.64338527947717      0.99289759844768
  O           4.96091466271030     -3.76751241173366      0.82888532726125
