21
Coordinates from ORCA-job NEB_reactant E -55.522999892700
  C           1.70296024261986     -0.20620792716066      0.04216957790533
  C           1.38708311775123     -0.54666053480401      1.29412822704206
  C           2.06425837068247     -1.07025027877938     -1.11994593782050
  H           1.68532558262671      0.85104266365249     -0.19016047024199
  N           1.03977886591363      0.59821898395123      2.21244230315866
  C           3.82363094097999     -4.05177507419547      0.90943983520158
  C           3.15603416350885     -3.10693526181109      1.55657633746358
  C           1.67311720826011     -2.93656987004710      1.52740525399367
  O           1.26680157465861     -1.65849256931072      1.99321536482408
  N           5.25523928436821     -4.14652728482948      1.02403046011579
  H           3.39009627614668     -4.79593300386604      0.25984049222737
  H           3.70946802744386     -2.41199185559077      2.17847645001887
  H           1.22208550150846     -3.62578005168387      2.25177663297141
  H           1.25546393596486     -3.16136637692126      0.54210160436113
  F           3.21251664857637     -1.75337904237559     -0.94318358286535
  F           1.12951141668429     -2.00372888143418     -1.39810567388181
  F           2.21640340078432     -0.34470105105161     -2.22424357542176
  O           0.81549295388589      0.30646174945452      3.35131535624149
  O           1.01757678686792      1.69765130168022      1.72817611732754
  O           5.82433843047014     -3.34705032753212      1.73080004885178
  O           5.78541727029754     -5.03312530734512      0.39644517852705
