18
Coordinates from ORCA-job NEB E -42.722089055000
  C           1.08412085390663      0.14621636560370     -0.31851028404471
  C           0.38788193918221      1.26973830449027      0.15013058186694
  C           0.87913285362711     -0.27071989138946     -1.74758707889676
  H           2.12778001799814      0.07564065190161     -0.03383981222598
  O           0.99409428967330      1.99025346693919      1.12147716124040
  C           0.11682687109859     -1.24441941271885      0.80238700422740
  C          -1.21516169357870     -1.00821317509359      0.48313513061553
  C          -1.76618856261595      0.24792320346834      0.81499833577100
  O          -0.86299700912997      1.42173680340517     -0.04573729336652
  Cl          0.82651590095122     -2.76736510721771      0.38601552576319
  H           0.52505789527569     -0.86174965846241      1.73147496020360
  H          -1.66919095797681     -1.58070818061068     -0.31007808126618
  H          -1.57337788211903      0.62962885128702      1.81217902404245
  H          -2.76206396941151      0.45995435590237      0.45298733082731
  F           1.32562680363123      0.69597623778947     -2.58086666746440
  F           1.58058611979731     -1.36512944890589     -2.06469304868293
  F          -0.38388898758271     -0.50426248250767     -2.10806489851712
  H           0.38524551727327      2.66549911611913      1.45459210990678
