14
Coordinates from ORCA-job NEB_reactant E -30.804786437670
  C           1.89240424200634     -0.17317121375527     -0.22511532807873
  C           1.25985708458055     -1.29104921077469      0.11566837291862
  F           2.74508787538082     -0.13832886229367     -1.25849987513509
  H           1.79586308381421      0.76787658136692      0.29024182282634
  Br          0.05388782117393     -1.15817793466787      1.60616391092904
  C          -0.69227814511836     -3.16711356855995     -2.91207726183693
  C          -0.59808933595133     -2.73374358072084     -1.66937201129174
  C           0.34343145461958     -3.33431463181752     -0.67370169632208
  O           1.46638402267204     -2.49102211960161     -0.42066329660737
  F          -1.53086330851677     -2.61139454949803     -3.79019828118199
  H          -0.14176816082940     -3.99356556943233     -3.33925333066766
  H          -1.19259947692705     -1.89135506917900     -1.34428933082919
  H           0.78211301927641     -4.25921016838151     -1.05061927776099
  H          -0.18103017618099     -3.53313010268463      0.27081558303778
