14
Coordinates from ORCA-job NEB_product E -30.818207154820
  C           1.26028623607230     -0.98025817069870     -1.19934715846410
  C           1.71423747378751     -1.51739854237349      0.13715625817845
  F           2.36161506610113     -0.85201134867398     -2.00339905977317
  H           0.80111468205890      0.01131804300138     -1.10737617270663
  Br          0.62432339688687     -0.82575689434749      1.59882529170165
  C           0.26368155101909     -1.96815490776087     -1.85853780052706
  C          -0.65776512675137     -2.61145397020503     -0.86382928647371
  C          -0.50632462513343     -3.84747469900350     -0.42777723604295
  O           2.59344185943272     -2.26757716952341      0.35862241190057
  F          -0.47423560360835     -1.25996958841170     -2.77758335169190
  H           0.84375622341038     -2.71197006765148     -2.41941129768111
  H          -1.47462399541416     -1.98522629856301     -0.53404407939418
  H           0.30210332931348     -4.47711242146276     -0.76231700824832
  H          -1.18181046717506     -4.27325396432597      0.29281848922246
