22
Coordinates from ORCA-job NEB_product E -58.946237255550
  C           1.90898667039974      0.13527548438692     -2.25579454134699
  C           0.44429087478768     -0.15791960047853     -2.52977054180909
  C           1.95911148171999      0.83252873765254     -0.90068572312121
  H           2.46017878246352     -0.81386250149227     -2.18072005058595
  N           0.09773312774434     -1.67120497097173     -2.55207609398074
  C           2.46168166853020      0.98269698896274     -3.42589108082059
  C           3.84919439723189      1.51871986611394     -3.19538678507627
  C           4.13194328163233      2.80790350699872     -3.20048200307262
  O          -0.42459362932504      0.61824233502004     -2.72597513692864
  C           2.49521357443478      0.09783499633152     -4.67564446614718
  H           1.76929477895111      1.80675151528983     -3.63941309269529
  H           4.61928428587233      0.77149272461124     -3.06340958648811
  H           3.37591418996488      3.56236676457372     -3.34311887395722
  H           5.13843778423869      3.15545971194294     -3.05184427493146
  Br          0.81851881355971     -0.19840390620404      0.34511374638912
  Br          3.74908645274191      0.86009119820639     -0.14756172774390
  Br          1.28230064250761      2.64555676962948     -0.96914864298998
  O          -1.05119051815720     -1.92173568668071     -2.75392583970195
  O           1.01257059543201     -2.43270806224863     -2.36605440930770
  F           3.37841093172839     -0.89870595502961     -4.56585414566987
  F           1.30165013916139     -0.48064472132847     -4.91223275609693
  F           2.81158167437974      0.79646480471398     -5.76322397391744
