22
Coordinates from ORCA-job NEB_reactant E -58.937563773760
  C           1.78144987179119     -0.08947241751922     -0.33980710986373
  C           1.33339299926881      0.07372089164274     -1.58608690857420
  C           2.10472674074943      0.98222759159089      0.62166952485471
  H           1.95364720630854     -1.10621557184646     -0.00303915283637
  N           1.08370642389055     -1.15949378626700     -2.39093384908540
  C           2.39590551967333      1.21013541536064     -5.29691022752372
  C           2.63604597797328      1.09028548631087     -4.00245693593153
  C           1.96659018517158      1.92769110738603     -2.95803278072603
  O           0.97843887476148      1.19365088821497     -2.21762124156398
  C           3.08604655185080      0.36811127825441     -6.32675238618753
  H           1.69964658617820      1.92521694284269     -5.70698716023728
  H           3.34094994350506      0.34899897370179     -3.64576245675889
  H           1.39794032055005      2.74406220899606     -3.40335270769045
  H           2.71885446360638      2.33378179125405     -2.26947588405107
  Br          1.82458701300771      0.36017284099167      2.45342750891952
  Br          4.04189821160424      1.42076767996518      0.41130674870413
  Br          1.08728783063760      2.62008812342265      0.37886621904023
  O           0.72447673986949     -0.97781157001714     -3.52434223902658
  O           1.27002099343094     -2.22047312982383     -1.84927041071664
  F           3.80657200604968     -0.62819512395185     -5.79820639009157
  F           2.22225990001338     -0.18213377722245     -7.18700636078906
  F           3.93955564010827      1.10398415671330     -7.06532579986453
