14
Coordinates from ORCA-job NEB E -27.212839646790
  C           1.20229265489082      0.86740473322575     -0.25413873432549
  C           0.60826321762286      0.92425642089350      0.98799754601262
  H           0.80783452554461      1.50722024990096     -1.02664655382854
  H           2.26620491079521      0.68892381331924     -0.30331174404038
  F           1.32188449582326      0.37664469830186      2.02765785195477
  C           0.32828086110406     -0.80831488937377     -0.90946428652959
  C          -1.01237585418494     -0.56907534493136     -0.66900990731745
  C          -1.42055737231846     -0.35683148843218      0.67887704526159
  O          -0.64801208481680      0.99903437322412      1.17408177893304
  F           0.74486991092906     -0.85861669437804     -2.18773979345483
  H           0.91215859932999     -1.48814529880402     -0.29626918581570
  H          -1.59076071744344     -0.12403615111899     -1.46496906315921
  H          -1.06269976854126     -1.07285128645713      1.41361079508134
  H          -2.45738337873496     -0.08561313536997      0.82932425122783
