14
Coordinates from ORCA-job NEB_reactant E -27.236550194180
  C           2.05205039849705     -0.06585092240250      0.09479243332627
  C           1.28477189134342     -1.13068506208842      0.23944540718253
  H           2.24372630962870      0.33288396651670     -0.88025366725989
  H           2.49012648840974      0.40643116961245      0.95093123863519
  F           1.03851754357249     -1.63929264919717      1.46847119239042
  C          -0.55780468293530     -4.71637909274270     -2.07090223707515
  C          -0.68386735426332     -3.45706183104105     -1.70085319084365
  C          -0.11634296900558     -2.91968751511076     -0.42946003958953
  O           0.69372946734868     -1.79564077246600     -0.76037087128525
  F          -1.09603602337844     -5.17307663708677     -3.20834452402086
  H          -0.05234247779119     -5.49751926051037     -1.52072609977678
  H          -1.20179880121230     -2.75028939076337     -2.33092684372758
  H           0.48100501823794     -3.68182594117229      0.08566494183915
  H          -0.93063480845190     -2.60210606154775      0.23783226020511
