14
Coordinates from ORCA-job NEB_product E -27.261472287670
  C           1.45400911701806     -1.65749569252012     -0.99974643664648
  C           1.08785232820823     -1.09368707852801      0.33125309736961
  H           1.06781856629647     -1.00624579736443     -1.78508446072416
  H           2.54371241858397     -1.71116097870992     -1.07569748643731
  F           1.54510836974621     -1.89922378975142      1.33585659181783
  C           0.88544434643342     -3.08114608803828     -1.16910051096774
  C          -0.61390277612028     -3.07051156525818     -1.13950314154437
  C          -1.32288529646116     -3.45521883066296     -0.09620935579602
  O           0.49661314918644     -0.11342815458582      0.60544922415481
  F           1.32640215502266     -3.55892815686470     -2.38663698578360
  H           1.29855328810185     -3.75304250998795     -0.40636652477422
  H          -1.08017468922009     -2.70556499992387     -2.04352589202525
  H          -0.85709065372028     -3.82195417016935      0.80399304033593
  H          -2.39756032307551     -3.41089218763498     -0.09648115897903
