23
Coordinates from ORCA-job NEB E -45.151980981560
  C           0.28928765723901      0.96731389613245      0.21891093337088
  C          -1.00624396707304      0.77788991412345      0.73002280488090
  C           0.42127871263117      1.69563736367515     -1.09546191717008
  H           1.03708076630304      1.26437530134680      0.95000429720164
  C          -1.16922881458944      0.55850212651552      2.22318793417854
  C           0.72039127473726     -0.85157504904461     -0.18795397469563
  C          -0.33930996093150     -1.23314190797895     -1.01162340547338
  C          -1.66300789585111     -1.22280988235044     -0.46175661092889
  O          -1.93698618043074      0.28195037134220     -0.04734854710982
  C           2.12497399446714     -0.86390972207840     -0.74748745497173
  H           0.70909980153940     -1.23058360523374      0.83001725256608
  H          -0.23033669858729     -1.12810698689568     -2.08185387620848
  H          -1.78819897176844     -1.76070654968527      0.47580735225380
  H          -2.46856173124867     -1.42864675452125     -1.15762172649579
  H          -0.37291892907374      1.40341076138271     -1.77604929555798
  H           1.38634423337051      1.52403792531652     -1.56096951020403
  H           0.32722115257543      2.76318166947166     -0.89977779136446
  F          -2.43198522730296      0.70603466128374      2.62669659401974
  F          -0.79042770052637     -0.68260474639679      2.62941333781297
  F          -0.41747106347228      1.41234616642033      2.93744236326718
  F           2.68506794429280     -2.09600804972993     -0.50653146549298
  H           2.77398976394504     -0.13289831847905     -0.25425849750869
  H           2.13994183975480     -0.72368858461639     -1.83280879636979
