23
Coordinates from ORCA-job NEB_reactant E -45.181017163950
  C           2.03939631227171     -0.25627379671448      0.12097054585197
  C           1.51574543189391     -1.26386216119418      0.81705814821098
  C           2.22212072709433     -0.09693141388280     -1.35544962785403
  H           2.37185104238917      0.58618520910750      0.70940405174665
  C           1.46088687748699     -1.18423253302802      2.33209460017509
  C           3.45403493583899     -3.51088041705292     -0.43260416407702
  C           2.42966417167086     -3.36905231383579     -1.25695139380901
  C           1.04886204916016     -2.95825893127630     -0.83847721831389
  O           0.96793581280240     -2.46521392365367      0.48321186492851
  C           4.82721073591202     -3.91625329358782     -0.85722940684490
  H           3.35757023484765     -3.33643018127667      0.62943025816757
  H           2.54165843249824     -3.56755774171623     -2.31389198297670
  H           0.39561131301089     -3.83873992317294     -0.83048151431341
  H           0.63214260170561     -2.23607648085561     -1.54903628020919
  H           2.61223126660333     -0.99960106994669     -1.81941135335309
  H           2.92038876333510      0.71422462451253     -1.54306891564982
  H           1.27831918928068      0.16146225912554     -1.83555407834286
  F           0.23585560648638     -1.42661435333658      2.81169099032395
  F           2.27861349406818     -2.09332554129364      2.89531843381781
  F           1.83374878500123      0.00500999398049      2.82232676737301
  F           4.92161814435700     -4.07413989688318     -2.21722638279476
  H           5.10816301400128     -4.87523509328910     -0.40469428360581
  H           5.56447105828386     -3.15450302072944     -0.57442905845104
