19
Coordinates from ORCA-job NEB E -44.849583488540
  C           0.60200029148649      0.56858078499532      0.72918334895822
  C          -0.72454001625241      0.08503866070196      0.80100491054582
  N           0.76699203592403      1.98176002406916      0.43928294099339
  H           1.28351050952412      0.26076166932402      1.51735413539980
  C          -0.97433942891054     -1.08357686444246      1.76104872288052
  C           1.25071683819134     -0.22621014391748     -0.98211281118301
  C           0.12682077753347     -0.80168775896536     -1.58860586768782
  C          -0.98951821423877      0.01122431903958     -1.78763460962796
  O          -1.57332214060215      0.28899728000948     -0.10724469236838
  Cl          2.56243674431516     -1.25992505821080     -0.52881965003909
  H           1.59503340371712      0.72616398727651     -1.37174770772728
  H          -0.01228344157227     -1.86998014940271     -1.48647919103187
  H          -1.89037681778109     -0.42660529590349     -2.19022958583671
  H          -0.83556824845974      1.05600308833132     -2.02405157570125
  O           1.46320939798356      2.58938956294157      1.21622659312159
  O           0.19535491008867      2.45702970774523     -0.51328284588370
  F          -0.42575013497275     -2.21508828871701      1.24434103239773
  F          -0.37414898062240     -0.87717138151028      2.94987995271428
  H          -2.04622748535182     -1.26470414336457      1.92188690007572
