19
Coordinates from ORCA-job NEB_product E -44.885995975360
  C           2.63853423043116     -1.32755422057907     -0.95887488102398
  C           1.30256443183182     -1.97261907990909     -0.63074211150175
  N           2.47989639726534      0.17239034700002     -0.94696734671046
  H           3.39206401672900     -1.57896815496395     -0.20589190899678
  C           1.31167263764220     -2.75161763549380      0.70671680630737
  C           3.13051133952270     -1.73657236388474     -2.36318804323117
  C           2.27692914845136     -1.23996278075619     -3.47876651082717
  C           2.76668397519111     -0.55767017130709     -4.49896224076715
  O           0.30751755366520     -1.86108108821409     -1.27905880694443
  Cl          3.14996309079946     -3.54927640650524     -2.39348931720604
  H           4.16997651762437     -1.42033407062706     -2.48824264679929
  H           1.22837518492013     -1.48838260108244     -3.41972315447112
  H           2.13427413396332     -0.22075483409266     -5.30022605137624
  H           3.81246016152629     -0.30594812161941     -4.57172280939252
  O           3.25564511513078      0.76896107722827     -0.25181608830801
  O           1.62131494889589      0.63801536332037     -1.63947054961247
  F           2.38026513132558     -3.56900895324614      0.78989391091394
  F           1.43220076814270     -1.85338481303869      1.71307555332778
  H           0.39275121694159     -3.33583149222896      0.85595619661951
