19
Coordinates from ORCA-job NEB_reactant E -44.885415551120
  C           1.58678094565703     -0.08444519712036     -0.11098066037303
  C           1.54922844352640     -1.38866368476408     -0.45826429110046
  N           1.91250296534348      1.03306610312535     -0.92597294902480
  H           1.35052428508289      0.20253931571183      0.90202093668707
  C           0.98986793700337     -2.37860660350220      0.56779088933101
  C           4.06220938720566     -2.40682948971794     -4.43672421225982
  C           3.24567293228605     -2.58268151356025     -3.41128761957610
  C           2.78594182514234     -1.46618512448221     -2.52346049935852
  O           1.95573138778710     -2.04206144913279     -1.52657919138616
  Cl          4.57271371549042     -3.69815459367678     -5.43978976445893
  H           4.46596104583419     -1.44619117479208     -4.71877171935165
  H           2.85777898127968     -3.55791770654898     -3.15934222562359
  H           2.23125749150421     -0.70736741910560     -3.09397388102203
  H           3.63805375305560     -0.96518723842607     -2.04357882606070
  O           2.40563861228723      1.98883738684249     -0.36729887686428
  O           1.63618343384048      0.98838747786804     -2.11132086129966
  F          -0.10701328958263     -2.98485969083466      0.07062123502606
  F           1.89382802443759     -3.34785978855347      0.81854471095629
  H           0.71773812281892     -1.90371960933025      1.52176780575933
