21
Coordinates from ORCA-job R E -38.580090399040
  C          -1.23188578457965     -0.39551680076944     -2.68376285706212
  C           0.04034040375454     -3.01348747668001     -1.95650420395493
  C          -1.24266838358538     -2.82948797660665     -2.27126842351623
  C          -1.87070045275351     -1.53871249722584     -2.39214977049510
  C          -0.62057432771150      2.51889473322439      0.33871618297739
  C          -0.34867148997181      1.23178325171527      0.49167214948514
  H          -1.89858901459190     -3.68061361481427     -2.39766768225288
  H          -2.94105350190871     -1.48881458822769     -2.22390037304328
  N          -1.89947375991735      0.84852631919218     -2.65500579265748
  H           0.45288724527464     -4.00278240971624     -1.85645469959174
  H          -0.17458146188324     -0.33005919492095     -2.88857788172834
  H           0.70137960468148     -2.19315410431008     -1.73750199093383
  H          -1.37155499014436      3.00544588408534      0.93775590763049
  H          -0.83791444378200      0.63155071013929      1.24549197698824
  H          -0.11719845000764      3.14797232020104     -0.37881938719078
  C           0.69101296496770      0.48449672513273     -0.25784535962334
  O          -1.19034378729747      1.84889331529823     -2.63141622261088
  O          -3.11088922335916      0.87892898070773     -2.62233921774902
  O           1.11234866865942     -0.58028775519060      0.12040813938323
  O           1.15302073386318      1.03062773402394     -1.39063736010226
  H           0.58702945029271      1.75708644474162     -1.71416313395226
