20
Coordinates from ORCA-job P E -38.842757256360
  C          -1.17038796529687      0.65822125922457     -2.16719808759101
  C          -0.55440432714604     -1.73706601538982     -0.49298322981004
  C          -1.07301785917608     -1.81350924554109     -1.89453925056857
  C          -1.33862432687735     -0.75722385145054     -2.64337416547079
  C          -0.97434669539579      0.75200175527687     -0.65815642805161
  C          -0.04088123603417     -0.33842144499834     -0.15482340439410
  H          -1.22588494494730     -2.80759431928411     -2.28589769762991
  H          -1.69449516399440     -0.85843083198764     -3.65793805958866
  N          -2.39135433008602      1.40975435888626     -2.59284289759837
  H          -1.35279028761869     -2.01150621997198      0.20173025785930
  H          -0.33816501550808      1.12492285192930     -2.71021754022209
  H           0.25485714298586     -2.45953693740653     -0.35800102453156
  H          -1.94145531803493      0.63042681006752     -0.16618030813494
  H           0.09509302819558     -0.24975287187471      0.92913066364458
  H          -0.58318965179982      1.73648914075333     -0.39594816893844
  N           1.33009840688578     -0.17435450030440     -0.72929762491623
  O          -2.54790704160322      1.53485690963664     -3.78041795236090
  O          -3.13449025070329      1.82007111232360     -1.73837837431076
  O           2.11422855771897     -1.06298139092450     -0.51133344402309
  O           1.56881727843584      0.83363343103558     -1.34534326336281
