20
Coordinates from ORCA-job R E -38.752349008630
  C          -1.23072712989757     -0.32890576284295     -2.69361570221765
  C           0.41884999465621     -2.82505636289072     -2.53827702661239
  C          -0.89274442135825     -2.74475891931045     -2.32237459738218
  C          -1.60583715198138     -1.50296667512363     -2.16425799995809
  C          -0.50157770487419      2.54143378747176      0.03157293876018
  C          -0.66651593064180      1.37701860488097      0.63891549473535
  H          -1.48500591691061     -3.64232484159757     -2.20186475993750
  H          -2.51034837935642     -1.52360405857709     -1.56684225074881
  N          -1.92824404486232      0.86647933889533     -2.40088519580578
  H           0.91466546273905     -3.77780489108031     -2.62010656558355
  H          -0.36377490487058     -0.18778386401418     -3.32014639023551
  H           1.03933103621201     -1.94583674885266     -2.59278891320708
  H          -0.98240070295605      3.43871580799262      0.36911945112168
  H          -1.30960148955665      1.19301738556877      1.48588088913766
  H           0.13323798066090      2.62039260265022     -0.83836063984278
  N          -0.03135737738469      0.19065458807904      0.14579475470321
  O          -1.48046273631417      1.89963179689497     -2.86501920333604
  O          -2.90420342683567      0.81923124579847     -1.67203368004283
  O          -0.37435785006077     -0.86069686626987      0.64615507333698
  O           0.78864469359295      0.28593383232728     -0.74520567688486
