23
Coordinates from ORCA-job NEB_product E -32.338961687820
  C           2.96666157107566      1.85511116192927     -1.46688088150609
  C           1.78185936104889      1.62350203798362     -2.40065848862768
  Cl          2.45545262399959      1.08696662431413      0.08075227877609
  H           3.82721975553614      1.27512368554666     -1.80695687876381
  C           1.71216331648210      0.22023564607167     -2.93884920179118
  C           3.36687259691675      3.31151442422331     -1.20362472677552
  C           2.28709715508417      4.05143014708607     -0.46516569262914
  C           2.44708073920331      4.56997077204099      0.73672687961796
  O           0.97850689017921      2.47396462349294     -2.67493621884201
  C           3.69589555650298      4.04635522882881     -2.51403063850536
  H           4.26831103842000      3.29059195262598     -0.57886647957674
  H           1.34742239214739      4.13942326866651     -0.98992124207210
  H           1.65501319622141      5.09937593183196      1.23783518653118
  H           3.37769052143742      4.48502757857250      1.27556637971208
  H           2.49534976810088      0.09155151978695     -3.68499638677359
  H           0.74695286399203      0.04915232065978     -3.40767619351978
  H           1.87705743206147     -0.50228221363880     -2.14403933440128
  C           4.86575738563550      3.43634572877967     -3.27758245354418
  H           3.94024584544805      5.07847446634239     -2.25379899365058
  H           2.80912084934094      4.06647888313218     -3.14818089384580
  H           5.73376783133759      3.32877259126742     -2.63016193277584
  H           5.13995051441745      4.08035080927348     -4.10969120697903
  H           4.61065079541107      2.45946281118251     -3.68166288005758
