23
Coordinates from ORCA-job NEB_reactant E -32.326662133250
  C           1.38685627262576      0.18665041218899      0.09746145040799
  C           1.41244020855802      0.62363271656442     -1.16071588089672
  Cl          2.01795036029230      0.94788669629763      1.52730237078636
  H           0.92826784136253     -0.75977015141813      0.32529308608507
  C           0.79636359417542     -0.21751300250362     -2.24756419029507
  C           4.15904004914116      4.41848889056980     -1.79614346162703
  C           2.96063557222396      3.86094343153392     -1.79444265431106
  C           2.55313573607378      2.73653967241421     -0.89371732557985
  O           1.91671741633439      1.75381830699773     -1.69965778969505
  C           4.57026010040465      5.55090153237325     -2.68079329203343
  H           4.92499306624510      4.05428179515879     -1.12280510026112
  H           2.18585963513335      4.20365138074351     -2.46590593719678
  H           1.84773451270431      3.10685436249154     -0.13714680896289
  H           3.42661626455298      2.31212998350194     -0.38752664881741
  H           1.55036260247143     -0.44115038835853     -2.99914597074425
  H           0.00083869840050      0.34515597362374     -2.73151373519190
  H           0.39460265876745     -1.14283245808750     -1.85083458197645
  C           5.76280878063837      5.15978265126622     -3.55328904949150
  H           4.85096056472495      6.40586231183058     -2.05872813977008
  H           3.73256262179812      5.85096683645450     -3.31238495507572
  H           6.61118612487627      4.87548832171766     -2.93478626239131
  H           6.06058969395388      5.99266660856685     -4.18579038573100
  H           5.50321762454130      4.31666411607252     -4.18916473723080
