17
Coordinates from ORCA-job NEB_reactant E -40.919557260820
  C           1.86649117909529      0.24868947297794     -0.15467605778492
  C           1.70453828852382      1.52029045882752     -0.51965566248686
  F           2.31864351620701     -0.12361894604704      1.05461586936274
  H           1.65539560172279     -0.59968147948442     -0.78412594773524
  C           1.23542339652331      1.90308999384004     -1.88722031461232
  C           2.27566974653340      5.08911778221110      1.35463692566590
  C           2.66727860683528      3.99911254195748      1.99201926667506
  C           2.49175688368137      2.60800936009230      1.46860600165693
  O           1.93997406490626      2.66188362793980      0.16371784246282
  Cl          2.49876907968167      6.65941029785503      2.00371902761548
  H           1.79016404240527      5.07869659114467      0.39224819212872
  H           3.14654289261703      4.05359127539792      2.95772372627636
  H           1.82671621721291      2.04719246384853      2.13930064684374
  H           3.46423383371714      2.09816648949754      1.44588562329512
  Br          0.51984123994895      0.46385519737389     -2.94633328966733
  Br         -0.13637449370147      3.27618777372719     -1.71777444351376
  Br          2.75553590408996      2.69010709884052     -2.85528740618244
