15
Coordinates from ORCA-job NEB_reactant E -31.099578916280
  C           2.13227853415519      0.00431204022871      0.54998300410151
  C           1.44972731027306      1.13524613583039      0.39766194615745
  Br          2.27499604875420     -1.02932747311604      2.11590229997891
  H           2.64344955175975     -0.41799124363589     -0.29761725233835
  F           1.44115625794847      1.65210855619495     -0.84762731975428
  C           2.99841387936130      1.85131434376689      3.98645538833048
  C           2.33152086649637      2.34912731605808      2.94775621848783
  C           0.93335419661028      1.95745295681229      2.58879951449463
  O           0.72360869346319      1.92959541484649      1.18212336751962
  C           4.30418234787325      2.27242065939332      4.30834232339082
  H           2.57369877231867      1.09731285630285      4.63616368787897
  H           2.78350253183754      3.09433520852023      2.30558240084719
  H           0.23790893328088      2.73351897037275      2.93014837836113
  H           0.64754491991267      1.00768445354677      3.05243538440523
  N           5.36205715595520      2.61888980487820      4.58059065813887
