15
Coordinates from ORCA-job NEB_product E -31.117483623370
  C           2.49035264559684      1.37044282329251      1.02531645571383
  C           2.35526075232862      2.48355668649263      0.02445003517917
  Br          1.05457010087356      0.10581957934622      0.53818576137087
  H           3.42843061247696      0.82665190625541      0.89120667347649
  F           3.04107147107572      2.19829569923581     -1.10673942424007
  C           2.29818963438873      1.86665110395481      2.46239768683023
  C           2.29974786752775      0.72690573628588      3.44999796785764
  C           1.28468371274706      0.46052881335309      4.24774995784836
  O           1.73443431803733      3.47997673045698      0.11638084596942
  C           3.39497741708366      2.76380595614140      2.77458345096664
  H           1.35938405690499      2.43042460866353      2.53014568247546
  H           3.20109179154836      0.12935385422994      3.46120777768185
  H           0.38313962739642      1.05088369733394      4.24471368198121
  H           1.31332362568165     -0.36627234237045      4.93514391608290
  N           4.27744236633233      3.44057514732831      3.03175953080599
