21
Coordinates from ORCA-job NEB E -44.237046156990
  C           0.82875024811030     -0.26034188556398      0.14947964278268
  C          -0.20102747019428     -1.25962273812503     -0.02059120784692
  N           0.66863809845533      0.12903238243986      1.56360750638976
  H           1.84628071637695     -0.59485552641662     -0.04052961324355
  C           0.12815816728760     -2.68412022467942     -0.34818028183468
  C           0.46031919581087      1.12204790205805     -0.58855649274822
  C          -0.87020510568766      1.41038957308670     -0.03933137414484
  C          -1.90999580121113      0.38988527648868     -0.27623935008135
  O          -1.48861158013048     -0.93225186810260      0.15545849056201
  N           1.50985173464393      2.07583957721057     -0.34091832408125
  H           0.45307838198415      0.87365232078429     -1.65200813340550
  H          -1.13230668252585      2.37578794900884      0.35509553348669
  H          -2.15228379576203      0.29757385060924     -1.33982627836241
  H          -2.81727296607065      0.58893202834567      0.29357759326748
  O           1.52872262730376     -0.15627655020799      2.37743905723339
  O          -0.42283866319947      0.67124139036821      1.79689046426794
  F          -0.97891273363215     -3.39892577964868     -0.60774451663910
  F           0.89751610092156     -2.73616300118780     -1.48354090953235
  H           0.70422703551152     -3.20452358442271      0.43768188146514
  H           1.46749590909457      2.44516380798749      0.60187056479619
  H           1.48041658291317      2.84753509996723     -0.99363425233113
