24
Coordinates from ORCA-job NEB_reactant E -51.501997079490
  C           1.65731017166122      0.31092447553123     -0.41601186387174
  C           1.40776636508268      0.53859147403082     -1.71035199211117
  O           1.52986231657547      1.23778130830016      0.56386911069831
  H           1.97406654091884     -0.67433891551399     -0.09553315292841
  C           1.47312019071994     -0.51091182164815     -2.75879468740250
  C           3.47949282801377      2.88583365569094     -1.43779772984425
  C           2.30148756366926      3.33021810631683     -1.03054269472865
  C           0.98416687555447      2.89747911690833     -1.59275475350458
  O           1.02943567110257      1.69943014830717     -2.33631206967151
  C           4.77066078445606      3.27646092253787     -0.78913078837001
  H           3.59266686563543      2.16900039670118     -2.23724466037025
  H           2.23587180353921      4.05378703157892     -0.23089078484267
  H           0.61891449161962      3.64279779218670     -2.30806111403497
  H           0.25608888303218      2.80935048634210     -0.77829206981004
  C           2.26966073129105      0.97164710400362      1.73948099306813
  H           3.34283334105671      1.07399135119723      1.55587058784876
  H           2.06000699514664     -0.03293401249944      2.11818233967464
  H           1.95207153623840      1.71308574289331      2.46920336334768
  Br          1.99577152775685     -2.26179006521441     -2.16162240605277
  Br         -0.28411761195412     -0.66473074170396     -3.62659821894551
  Br          2.74488821176576      0.05568178552439     -4.14149177773689
  F           4.62639795153545      4.30898902883599      0.07277439269840
  F           5.24616173887860      2.23550335229893     -0.04180039044285
  H           5.55821422670392      3.54175227739422     -1.51194963266715
