24
Coordinates from ORCA-job NEB_product E -51.495657157240
  C           2.63918981445618      1.20981836634008     -0.54931725471446
  C           1.41372673464712      0.61956358591786     -1.23481800756868
  O           2.40372576004959      1.37568137625723      0.81699338539537
  H           3.52903632943548      0.58060875475003     -0.72436173157194
  C           1.66520334123927     -0.44213756228465     -2.30236462766138
  C           2.86615736378338      2.61395028815304     -1.17548472152507
  C           1.75065592817837      3.54183539715144     -0.79190891116587
  C           0.92543716891792      4.08310690430433     -1.66683936798509
  O           0.28906513249029      0.91721291901671     -0.96143875681083
  C           4.22025900143018      3.17260433254265     -0.72177612047852
  H           2.92806962928556      2.51980841235631     -2.26461767781533
  H           1.65389775819228      3.71363156384012      0.26901826635388
  H           1.01161950240017      3.90164152189471     -2.72664847918801
  H           0.12596293601816      4.73260620756726     -1.35837064451182
  C           2.46297364111967      0.19057422299776      1.57535738939486
  H           3.41072522071849     -0.33639957328250      1.41660370370997
  H           1.63144844972591     -0.48415948047088      1.34250672443420
  H           2.39143773681830      0.50321576004760      2.61415962471665
  Br          2.20398074964631     -2.04837373861749     -1.32514251523705
  Br          0.02506999552930     -0.79301354456683     -3.26375631052111
  Br          3.06486668167582      0.02899572763768     -3.55724216259027
  F           4.31505121167387      3.30252299634034      0.61332513468015
  F           5.21967135156189      2.33340054547787     -1.09523202638227
  H           4.42106856100649      4.15640501662933     -1.17444491295741
