23
Coordinates from ORCA-job P E -40.445827296340
  C          -1.21932374820370      0.53928000065936     -2.29298943910917
  C          -0.82923513328136     -1.93455223289098     -0.68153413112953
  C          -1.43874016140282     -1.92329670985331     -2.04707200535380
  C          -1.61779510036742     -0.83066471706531     -2.76786474823799
  C          -1.05264871329976      0.55476304420531     -0.77100033773803
  C          -0.14360410589683     -0.60218999397774     -0.35202386971302
  H          -1.73784620626255     -2.88530234260831     -2.43844782911290
  H          -2.04515689547247     -0.88688913133673     -3.75739878350174
  C          -2.23998330708155      1.57387311044685     -2.75343979040103
  H          -1.60793018468202     -2.12929975614352      0.06173140842548
  H          -0.25496097189969      0.80260268416958     -2.74492005032370
  H          -0.10957229087040     -2.75340572807914     -0.61336872621110
  H          -2.02253025598105      0.43910572665588     -0.28701635101506
  H           0.03489153787050     -0.54699888343795      0.73534344711457
  H          -0.60621429629933      1.49716448484044     -0.45557919372207
  O           1.08810854425644     -0.43237708934027     -1.02925652494024
  Cl         -3.86698038983770      1.15445684843204     -2.17163920585668
  Cl         -1.83747556552236      3.19898011276883     -2.15612928920466
  Cl         -2.29644135100952      1.66266495992794     -4.53094621492133
  C           2.17476387250636     -1.12119332916597     -0.46927367290141
  H           3.05233709991734     -0.81431187416983     -1.03498689200719
  H           2.06435224713548     -2.20870073628967     -0.54674776346831
  H           2.31122537568440     -0.85580844774751      0.58690996332893
