23
Coordinates from ORCA-job R E -40.354402835120
  C          -1.76273916031681      0.07647126082033     -3.12984111562976
  C           0.08250200254915     -2.21916080814923     -2.51059772360989
  C          -1.15851283048311     -2.06199331739807     -2.06423801891541
  C          -1.94889885844971     -0.85205886612491     -2.19262664904322
  C          -0.42096214260827      1.46044630340939     -0.15302610377044
  C           0.00633344512298      0.30579733977319      0.32828657739172
  H          -1.64407113841979     -2.87017948056070     -1.53191191927353
  H          -2.74986872111765     -0.73401644224583     -1.47607767093144
  C          -2.56470326193017      1.30999233475811     -3.28848490975695
  H           0.61706202248483     -3.14352150779645     -2.37435812030279
  H          -0.99562502424057     -0.03445663548346     -3.88209941382079
  H           0.61727411905370     -1.42348424537029     -2.99857206531319
  H          -1.32586728963073      1.90689336226830      0.21060917922648
  H          -0.53246401075657     -0.22616798378346      1.10612155880258
  H           0.12281666345562      1.97825330570526     -0.92099812061674
  O           1.14285141647242     -0.29413835960593     -0.11880208029470
  Cl         -3.68137715161311      1.62238947069328     -1.95658747447121
  Cl         -1.48096964458468      2.72194861998443     -3.44672657001717
  Cl         -3.53035329415188      1.19832186639189     -4.80262723712613
  C           1.51679730843510     -1.46910033616832      0.55667930260625
  H           1.74758019581198     -1.26892561989992      1.60887151801772
  H           2.41080180306301     -1.83949704718964      0.05840211235351
  H           0.72977355185425     -2.22894321402796      0.50069494449510
