23
Coordinates from ORCA-job TS E -40.339747840840
  C          -0.87895109963386      0.67544491076116     -1.22690074626809
  C           0.32352122321023     -1.75753796490052     -0.32341515689428
  C          -0.99823560604983     -1.66342522876121     -0.60967717877208
  C          -1.59551404467598     -0.48996488159815     -1.10309941087794
  C          -0.31964074161999      1.01783979509467      0.84306080733702
  C           0.54346808896232      0.05188846155668      1.26973606448293
  H          -1.65994375487158     -2.46606549238211     -0.31414319028483
  H          -2.67324030301482     -0.45225727232188     -1.16205029093305
  C          -1.56070558486664      1.91362171202168     -1.69731655780621
  H           0.70246832904048     -2.64983818383365      0.14890524780079
  H           0.17133193591342      0.64717646148087     -1.47168106958746
  H           1.05551951469964     -1.12356023210963     -0.78784554477445
  H          -1.33443339418366      0.99515434820555      1.19194695848051
  H           0.23529616157923     -0.76090459824859      1.91239082926401
  H           0.08768010593379      1.97082755459574      0.55857485643185
  O           1.88287022723227      0.24807207237792      1.12123678807431
  Cl         -3.02625516193409      2.27070098193473     -0.76175682119982
  Cl         -0.49332359861489      3.33094102299734     -1.62516737024090
  Cl         -2.05563755371786      1.71592875751303     -3.41984262561062
  C           2.72287801985393     -0.69143513749405      1.74554105768823
  H           3.74258324956580     -0.34743094644970      1.58268690031504
  H           2.60118668340367     -1.68719199785709      1.30747097935439
  H           2.52707730378843     -0.74798414258277      2.82134547402064
