17
Coordinates from ORCA-job NEB E -37.693504947340
  C           0.69621818626297      0.51290569930763      0.64920439786851
  C          -0.70719173498457      0.24962073130256      0.61532742805079
  I           1.17363417121779      2.59184062016735     -0.02248001860993
  H           1.10816288744249      0.47254691379151      1.65379739476027
  C          -1.46113267054094     -0.09417707154085      1.86497611244913
  C           1.43482961730413     -0.50331038934775     -0.30724477763668
  C           0.76648021097404     -0.51188378209515     -1.59778958953027
  C          -0.63717564345062     -0.07663129792163     -1.71095944901121
  O          -1.37789667180913      0.09114756678924     -0.53837966461078
  Cl          3.19168304657984     -0.09822888551917     -0.47439319721067
  H           1.43875308016657     -1.45348661542762      0.23439933188511
  H           1.36405378846761     -0.36338442310221     -2.48194864123956
  H          -1.22975864454553     -0.79236656696196     -2.29481009388567
  H          -0.66248395969469      0.87055785970422     -2.27498664046303
  F          -2.75035650611347     -0.36332577272029      1.60883232581449
  F          -0.93463260747169     -1.22564594248925      2.44022283382656
  H          -1.41318654980479      0.69382135606337      2.63623224754295
