20
Coordinates from ORCA-job NEB E -37.121786558210
  C           1.08966891873936      0.13324479633602     -0.58432855435819
  C           0.50099413938867      1.19686141910239     -1.26332674447011
  C           0.93615983922499     -1.24634663739946     -1.16570043245547
  H           2.06033746810445      0.31715881659721     -0.13508242251131
  Br          1.18061305504918      2.98682963941259     -0.79923323117179
  C          -0.15341989080190      0.19062358875078      0.96735189280092
  C          -1.40607776904447      0.10812421584244      0.36708074491740
  C          -1.79760779895019      1.16449328824949     -0.50396944050407
  O          -0.69090944192971      1.16629602413800     -1.70109926418713
  C           0.27025330568465     -0.90452105995957      1.91624101475820
  H           0.18605662230759      1.15792696245651      1.32690157730057
  H          -1.85250959733343     -0.86615151225581      0.23477989070231
  H          -1.66995844211872      2.17694463167712     -0.12573659123554
  H          -2.72672488541093      1.03390352046580     -1.04410450025055
  H           1.16819783752740     -2.01135116684592     -0.43192781557346
  H           1.64230326224325     -1.35459251020269     -1.98894085996598
  H          -0.06800467685470     -1.40237908885072     -1.55115845714311
  F          -0.18020472314025     -2.12484402460104      1.54287503644423
  F           1.61850589884204     -1.00841929985624      2.00348581969631
  H          -0.10767312152728     -0.71380160305691      2.93589233720679
