20
Coordinates from ORCA-job NEB_reactant E -37.143609145180
  C           1.88129465050552      0.15681965178505      0.03883095483963
  C           1.45601755370934      0.65847880923423      1.18846371145897
  C           1.99448419480142     -1.30597195437144     -0.23195514206189
  H           2.18071971050573      0.82966301615459     -0.74948228020872
  Br          1.35100510234774      2.58886797008470      1.38349154683465
  C          -0.60971335485081     -0.25963570017355      5.30426634672867
  C          -0.17178392907341     -0.67620080606207      4.12889591402390
  C          -0.08666538253139      0.19057775072722      2.91668712432554
  O           1.16770306039201     -0.04927797017630      2.28909792534025
  C          -0.71744776061004     -1.14294803093784      6.50961771315643
  H          -0.95178409575532      0.75096512468534      5.47307498796515
  H           0.16492313989781     -1.69390895304202      3.99055142366622
  H          -0.18319638299250      1.25029972261175      3.18479705150309
  H          -0.89933393264042     -0.07052256875602      2.22086535143145
  H           1.62697732865711     -1.88481180742417      0.61056270111483
  H           3.03596264417807     -1.56954691517344     -0.41199284678649
  H           1.42684202926663     -1.56299399740600     -1.12541306853667
  F          -1.98622464849942     -1.12884542224460      6.99918300325501
  F          -0.43450936044255     -2.43567624605498      6.22938845871044
  H          -0.05117056686552     -0.82433167346049      7.33036912323954
