20
Coordinates from ORCA-job NEB_product E -37.167224295940
  C           1.43825653364207     -0.35312830365290      2.32931003478834
  C           1.16369095133610      0.79119526654635      1.39904452408732
  C           1.26550281420920     -1.66424228540235      1.56469338538404
  H           2.47072633125846     -0.25875964590417      2.68659642171720
  Br          1.81979641425431      2.50838171328189      2.12982686839389
  C           0.49798231053537     -0.20376701245206      3.55332717233883
  C          -0.95102747949102     -0.35025555737532      3.17389319258793
  C          -1.78342981540902      0.66982193345814      3.09858107091004
  O           0.63364250189871      0.79905938331371      0.34855623161354
  C           0.87386202293871     -1.19066532968016      4.66361739357374
  H           0.65653567028942      0.79055208045165      3.98845748840071
  H          -1.28264118724464     -1.35813283656776      2.97100018982535
  H          -1.47240654922286      1.68007011838119      3.31110295747747
  H          -2.81413171186709      0.53711108273643      2.82101255195266
  H           1.41429371152104     -2.51536838580278      2.22153441072946
  H           1.99357154946132     -1.71794074068431      0.75835420213492
  H           0.27255534534792     -1.72351041249164      1.12775533366992
  F           0.25292913464580     -0.84145049665753      5.81344907205929
  F           0.47600496510138     -2.45613801345342      4.39562683864655
  H           1.95738648679482     -1.21883255804496      4.86506065970878
