17
Coordinates from ORCA-job NEB_product E -40.467977405890
  C           3.35493821012625      0.47810045172136      1.41086178982538
  C           1.85954147464457      0.58827562098978      1.21645640495545
  F           3.86180897369774     -0.23341321057502      0.36151777793623
  H           3.80440410366445      1.48167874375248      1.37387622493237
  Br          1.08586225179706      1.85273528368924      2.49325894916411
  C           3.65196890726231     -0.22553498701364      2.75139950967194
  C           3.05563349215496     -1.60914804137652      2.73997066127952
  C           2.21306657115960     -2.03701442576307      3.66031992062449
  O           1.17619156461064      0.03297644623777      0.43910081672251
  C           5.14342807952762     -0.28646822627547      3.07597049328067
  H           3.18504025272875      0.37313410645271      3.54475839032777
  H           3.35970038300741     -2.23694429468581      1.91375116310045
  H           1.90190759761304     -1.41895244259427      4.48713326085870
  H           1.80360047204104     -3.03057313122462      3.62243319508000
  Br          5.34731584149827     -1.01493086453052      4.88217542241126
  Br          6.17229186286490     -1.40571807313171      1.86665652422975
  Br          5.93639996160138      1.50899704432729      3.08685949559941
