17
Coordinates from ORCA-job NEB_reactant E -40.452787832730
  C           2.26444026547710     -0.37061418942527      0.39440034035180
  C           1.52578548377439      0.45347952743034      1.12953854032861
  F           2.89286443849403     -1.45776322480567      0.89327514326862
  H           2.42415920658252     -0.24111763787414     -0.66199559829538
  Br          0.71120302238158      1.91231618038860      0.24466642220774
  C           4.24022111626175     -1.01277300939077      3.51069268713512
  C           3.28665889545694     -0.09596544191706      3.49922609440965
  C           1.83522216639433     -0.41959631835868      3.32397548355369
  O           1.19930836846665      0.48328307712174      2.43065692745844
  C           5.68741167804141     -0.76430983361295      3.67826770403075
  H           4.00044039815490     -2.06148789342363      3.38146886020885
  H           3.50444494184597      0.95858220538301      3.60928023164292
  H           1.30915897638292     -0.26184299955999      4.27154963713971
  H           1.69184636885489     -1.45667046961362      3.00390078235046
  Br          6.33977834495369     -1.76899846860152      5.24804557335288
  Br          6.64421169321680     -1.43339243909607      2.08896030992024
  Br          6.17264463526012      1.09787093535567      3.92469086093587
