26
Coordinates from ORCA-job NEB_reactant E -50.605674476510
  C           2.02992049790686     -1.11820305747624      0.02302392825976
  C           1.18945620309197     -2.14627606693903      0.20950871997628
  C           3.00756470090800     -0.78076292034519     -1.05292831152305
  H           2.06264557814830     -0.40527461427050      0.83187790084176
  C           0.35978051221052     -2.18186315383467      1.47300917196658
  C           3.45174676869445     -3.73433033596246     -3.05277712856690
  C           2.71556649593465     -3.87320113823797     -1.96201513895878
  C           1.29411107587218     -3.41504782422549     -1.87070485012225
  O           0.85576407445854     -3.21036191508229     -0.54295450643030
  C           4.84903498866187     -4.17913187227447     -3.21625878936225
  H           3.04773689513703     -3.25312808413341     -3.93567327968776
  H           3.10550745869930     -4.33610215466406     -1.06526488882018
  H           0.64519558706782     -4.22275847429748     -2.23421120803565
  H           1.11515832810248     -2.53220908077651     -2.49133402662010
  F           4.07121507289752     -1.64019050203549     -1.07797005265249
  F           2.50027721982932     -0.80915739761608     -2.31972405902642
  H           3.42432291046669      0.22611308988656     -0.90627897728653
  C          -0.95518336374646     -1.42945391793223      1.26882907999183
  H           0.91574021628908     -1.74160647731954      2.29936226936376
  H           0.14526555302111     -3.22490167218622      1.70648390660129
  H          -0.76384074109197     -0.38520571563341      1.03400880083804
  H          -1.55746695956772     -1.47867422134987      2.17202283752793
  H          -1.52006760698636     -1.87097132212584      0.45185193155987
  Br          4.91705184963369     -5.56294247918439     -4.63522594021323
  Br          5.96791887392566     -2.68027274949212     -3.80771326424412
  Br          5.65847781043546     -4.93558594249159     -1.63044412537706
