21
Coordinates from ORCA-job NEB_reactant E -35.842572659590
  C           1.86604825284787      0.17182588342203      0.18773662126186
  C           1.55260415061113      0.66599146864044      1.40989599511714
  N           1.95631567313947     -1.14463271288392     -0.08802687356278
  H           2.08800332151691      0.87092817607450     -0.60565519033542
  N           1.49264357440644      2.07571513411570      1.60486053380788
  C           2.87037603383687      1.19283776481033      5.10343911037018
  C           3.03987072001957      0.68150048368764      3.89533898546544
  C           2.26400073049066     -0.48435677076908      3.36760382396512
  O           1.19828186058544     -0.11482233385114      2.47204457601811
  C           3.60252957072347      2.37584923552872      5.63111585973303
  H           2.14677870145582      0.74961856678435      5.77498161473183
  H           3.75031688214302      1.12516693246405      3.20872678947706
  H           1.75095235449598     -1.00841223920674      4.17550037705016
  H           2.93785397410567     -1.18025335459801      2.84549079093959
  H           1.97582579757255     -1.45167833778704     -1.04397632060488
  H           1.60139840162458     -1.78635166819659      0.60382703584073
  O           1.10644539181018      2.48946157259378      2.67967755531592
  O           1.82566097715382      2.78978099079930      0.66842050128938
  H           2.89482769044007      3.18161704644235      5.82173572356411
  H           4.34726095765192      2.72634947525167      4.92150096556227
  H           4.09150498336857      2.13176468667766      6.57366152499328
