19
Coordinates from ORCA-job NEB_product E -38.093500565000
  C           2.06934015176563      1.39638972671405      0.29860218761356
  C           2.30708890915683      0.73965509923199     -1.07658515433598
  C           1.12917536449516      0.50627552887898      1.11315914819015
  H           3.02532663146147      1.44445199312614      0.83207660022305
  N           3.20684469949116      1.37232811580685     -1.84895161192753
  C           1.49899524437041      2.82558797525626      0.18504718620116
  C           1.20516018972975      3.41531079411462      1.53157400341443
  C          -0.01028556931410      3.71049333611168      1.94862151350602
  O           1.75819112636780     -0.28712442581074     -1.40142543047174
  F           2.44755625766329      3.62187978755258     -0.44800867280219
  H           0.61261663467705      2.83428877377869     -0.45965891956983
  H           2.07656488543168      3.58609951028778      2.14787468612195
  H          -0.87933414416797      3.53167764646235      1.33781373741480
  H          -0.18354506867454      4.11975296024373      2.92815123810726
  F           1.31789276489885      0.69107591738141      2.44332662110595
  F          -0.16921385507760      0.79732008793695      0.87565985778390
  H           1.27999866799608     -0.55976740509909      0.88858236874994
  H           3.36283912405405      1.01290135160659     -2.77690408035586
  H           3.58298798567499      2.27430322641916     -1.61345527896905
