16
Coordinates from ORCA-job NEB E -32.759628688180
  C          -0.71274000274388     -0.99974124632529     -0.46694650231264
  C           0.57156709937873     -1.55036934164543     -0.17122818364105
  Br         -2.13994179104155     -1.56317819744003      0.76929943816715
  H          -1.08149673763750     -1.20059436668338     -1.46942263824857
  H           1.22336017578021     -1.81832490153349     -1.00237038049771
  C          -0.56308818556958      0.69648344779942     -0.22455012459196
  C           0.54159596680763      1.00625584152376      0.65710127719687
  C           0.72445465070592      0.05069219217026      1.70968857735882
  O           1.15657280267040     -1.23748500605398      0.93292083809352
  N          -0.38411470646346      1.29561581311134     -1.55932815652111
  H          -1.55018508596173      0.97671090784438      0.14804601801604
  H           1.44563552198299      1.34562806927771      0.16448274869223
  H          -0.16786807740971     -0.21863379854230      2.27229712466092
  H           1.57363951474002      0.21348385404322      2.36439985537419
  O           0.65727861360646      1.05342956214351     -2.12282446831821
  O          -1.29466975884494      1.95002717031029     -2.00156542342851
