16
Coordinates from ORCA-job NEB_product E -32.811172910890
  C           2.05766530754977      1.97986146209139     -0.82339070665345
  C           2.26394404175923      0.96722230610822      0.28025419240019
  Br          0.35799976609619      1.42635178268516     -1.66951361908941
  H           2.81757354589171      1.87771835874834     -1.60426243771845
  H           2.35781529511678     -0.06356763863529     -0.10524594561389
  C           1.97564619772747      3.41506812590009     -0.33140204684404
  C           3.23846081894076      3.81585154728245      0.38304510741639
  C           3.24545641739750      4.41505331693639      1.55806585912997
  O           2.28182566007913      1.22391517300671      1.44548382513648
  N           1.86179010896873      4.34594163606781     -1.50315227604409
  H           1.10128115430044      3.58084018833450      0.30462999626624
  H           4.15285255435404      3.60424372068363     -0.15458059502090
  H           2.33661857271124      4.63253035371900      2.09286098747492
  H           4.16620177032861      4.69827227785716      2.03616358692822
  O           2.54283279515705      4.09241834401200     -2.46411142275609
  O           1.13903599362138      5.29487904520244     -1.36934450501208
