19
Coordinates from ORCA-job NEB E -42.083069440490
  C           0.27802723099989     -0.07181649762698     -1.29344423983778
  C          -1.07979971009049      0.29061895020664     -1.15454412524509
  Cl          0.61153193381681     -1.73505763439994     -1.69690480888933
  H           0.94656748823190      0.60816903423127     -1.80841059538034
  N          -1.42122334472572      1.62344434971663     -1.26424162821252
  C           0.72141464759009      0.03493540933979      0.62209001609378
  C          -0.16566265507594     -0.86942818390437      1.21093571365841
  C          -1.55070410207488     -0.56875250091494      1.08657802103302
  O          -1.89021982744996     -0.48606181014684     -0.51637549089177
  C           2.19808053972706     -0.23476904568625      0.72885070030079
  H           0.52473067551298      1.09855640208011      0.73034160837896
  H           0.13791932672633     -1.90089787890722      1.30108323131701
  H          -1.84886500826467      0.43349890135923      1.38417035968351
  H          -2.24362052135527     -1.33113456291391      1.41793101724470
  H          -2.40277544935585      1.82552413405227     -1.15542404614763
  H          -0.93555104823356      2.18368745697727     -1.94377653310544
  F           2.53626366457110     -1.52037830886425      0.63371875247490
  F           2.91147200927156      0.42720988309965     -0.20043422344369
  F           2.67241415017863      0.19265190230185      1.91785627096851
