19
Coordinates from ORCA-job NEB_product E -42.144023358110
  C           3.19040227069913      0.91303006180276      2.23596953588049
  C           1.65766215148167      1.08896585206464      2.25551992599337
  Cl          3.83997656720838      0.65982011339406      0.59299197563846
  H           3.63206226931980      1.84589614250349      2.60433188063102
  N           1.08992376487583      1.37998668854596      1.07980199113601
  C           3.56257530407820     -0.24321454386015      3.17508887722638
  C           3.16882345800454     -1.58235860414093      2.61026694139695
  C           2.14488985769815     -2.27852149222135      3.06290444881632
  O           1.05615449087204      1.00198962231093      3.30009237689405
  C           5.04867037583703     -0.23726697048317      3.51723802479006
  H           3.02034691902934     -0.06258740791521      4.11177729624670
  H           3.77609993016501     -1.93873493894532      1.78999495778036
  H           1.53281480893246     -1.92279982973586      3.87454926467737
  H           1.87636105417042     -3.22662383493540      2.63116871852284
  H           0.09196726902345      1.50490049976034      1.04302551074089
  H           1.62875906983817      1.39148221289018      0.22928326205722
  F           5.84203752426677     -0.56163051280113      2.49031567130105
  F           5.46410381090918      0.96486761176953      3.95186032737567
  F           5.32206910359043     -1.10960067000335      4.49761901289480
