19
Coordinates from ORCA-job NEB_reactant E -42.109389652150
  C           2.41498291404735     -0.20103325991003      0.52930726532636
  C           1.62633569566938      0.55420969355335      1.30319247458741
  Cl          2.99346483872924     -1.79723716565658      0.86612381487984
  H           2.76077355225185      0.17985662727561     -0.41534090559264
  N           1.25760536503208      1.83106464113743      0.90083649610365
  C           4.16515573209269     -1.00651733604682      3.91057969686757
  C           3.17811820931056     -0.16275535157933      3.66083145107783
  C           1.76097179680590     -0.57699395417770      3.42085823209256
  O           1.09073837902132      0.29230941063855      2.52984101153426
  C           5.56721093972562     -0.56012761160450      4.17172933309671
  H           4.03411537431915     -2.07704793892176      3.94900170415754
  H           3.35889684086294      0.90353945770500      3.61574383677871
  H           1.19621445877326     -0.48004501997722      4.35589928989585
  H           1.70482293141449     -1.61703600525008      3.08481581426035
  H           0.46133498826280      2.18224171918717      1.41189436436994
  H           1.20186475819565      1.97909411920969     -0.09379584424680
  F           5.73208529498365      0.76682154960779      4.08798253375429
  F           5.98341240338336     -0.91653296067376      5.40308642048333
  F           6.44139552711869     -1.11031061451683      3.31271301057328
