19
Coordinates from ORCA-job NEB E -33.149584698410
  C           0.55053754696809     -0.08110934378559      1.10985928085889
  C          -0.78507603164982     -0.34540843924469      0.71789987190548
  N           0.85773021270697      1.13135927393583      1.67646753946406
  H           1.14351263939195     -0.90676616857146      1.48882569487434
  C          -1.23923948898285     -1.78477316748756      0.55612354519732
  C           1.18056134643635     -0.01307045483021     -0.82320972273476
  C           0.43175035989579      1.03799928473199     -1.35118355052324
  C          -0.93758625542532      0.86679812377023     -1.52843524249286
  O          -1.48357900098022      0.57866693451691      0.19025164353663
  Br          3.06286278429972      0.26383566462257     -0.59930379062618
  H           0.98330779155547     -1.03664340163374     -1.10861402170699
  H           0.82365859087604      2.04164030316000     -1.25596612419144
  H          -1.30592126882751     -0.07778644228817     -1.90270004473752
  H          -1.53669667063812      1.72130784803371     -1.79919755111078
  H           0.26954753643446      1.89083665089314      1.35987822426672
  H           1.83912900753896      1.36454320255813      1.72456414642674
  F          -0.18107921479647     -2.65934817197238      0.52101532415625
  H          -1.80160475970196     -1.90951987768754     -0.37646873431090
  H          -1.87181512510150     -2.08256181872117      1.40019351174824
