19
Coordinates from ORCA-job NEB_reactant E -33.175637357320
  C           1.38879636506894      0.09761033231782     -0.00586921918832
  C           1.53115636747835     -0.71769139340328     -1.05467860216522
  N           1.18625251519988      1.46309418947267     -0.09540683935799
  H           1.49687482274051     -0.30150325136486      0.99050013162723
  C           1.78955154325443     -2.19665188091710     -0.93248308375608
  C           3.99466672962448     -1.02264147111475     -4.27861313005171
  C           3.69269684025547     -0.49408604154309     -3.10690309620541
  C           2.51412308454738      0.41369306266693     -2.90801087000782
  O           1.38916124053853     -0.27134971268785     -2.36792738294336
  Br          5.45019418003841     -2.20369551610636     -4.52381238356209
  H           3.45092186143176     -0.82386705786773     -5.18837042658208
  H           4.27081169497862     -0.73218866597481     -2.22512525140403
  H           2.16316612397399      0.80519651500259     -3.86608876048565
  H           2.80399326494604      1.24432276921343     -2.25151078168573
  H           0.79015369983306      1.75642113084397     -0.97801877534063
  H           0.72209542216953      1.87515859679603      0.69878865332152
  F           1.56228346364291     -2.63997000794568      0.34462965171264
  H           2.82779674018053     -2.46028449660093     -1.17614866807582
  H           1.11460404009718     -2.74776710078700     -1.59785116584945
