19
Coordinates from ORCA-job NEB_product E -33.175413474560
  C           2.94184646429182     -0.58897284049847     -0.86299333204102
  C           1.42925610001452     -0.86306653729479     -0.91926090640510
  N           3.25846718198212      0.61376977688275     -0.13064236821714
  H           3.46013577539660     -1.43919824021119     -0.40583483285837
  C           1.06297880186807     -2.33382230377726     -1.01755359842161
  C           3.41995465158694     -0.45362986635286     -2.32489356369671
  C           2.85348619643944      0.73435187248682     -3.01892828007813
  C           2.04642033311726      0.64715751531770     -4.05984641971633
  O           0.62467309884366      0.02521598586774     -0.87484188435338
  Br          5.38705441323184     -0.30920414916004     -2.30199758915845
  H           3.20927655418195     -1.37126128269243     -2.87899840632258
  H           3.15438247214340      1.69148276770854     -2.61850040643883
  H           1.74800663980462     -0.30163645259734     -4.47627539169964
  H           1.64469628957457      1.52429969512098     -4.53503003866761
  H           2.58836282734799      1.34256977574527     -0.35830618223795
  H           3.22425160201710      0.45808072474283      0.86916200119148
  F          -0.26241134559318     -2.50784507341390     -1.28298874628494
  H           1.27437371392900     -2.82586306659485     -0.05941870042474
  H           1.62858822982228     -2.82882830127951     -1.81495135416891
