24
Coordinates from ORCA-job NEB_product E -43.057413661000
  C           1.48764988253553     -1.34459323629993      1.22669965596854
  C           2.78224810390858     -1.13732823347371      2.04768998876274
  C           1.65032850660557     -1.25796745438927     -0.27382214397524
  H           0.82251307986438     -0.52046171414088      1.52321838494529
  C           4.00760598513493     -1.89322885370396      1.64910614225837
  C           0.82474171432357     -2.64376812722023      1.76885271601475
  C          -0.58000282318218     -2.82897924969024      1.25456847230319
  C          -1.64569826131478     -2.32290659414695      1.84524022033429
  O           2.72310403318862     -0.42949231317349      3.01817895476937
  O           1.64898532155837     -3.74204549124057      1.44987559918723
  H           0.78675978519428     -2.51610888490850      2.86619973716657
  H          -0.66290451307487     -3.43314523098487      0.36128624843080
  H          -1.56959675404673     -1.72975777138362      2.74228469659103
  H          -2.63369676189300     -2.46859019603761      1.44632006547003
  Br         -0.06996891356098     -0.92694858008974     -1.15808557586611
  Br          2.75695237253643      0.31403839458830     -0.70479329086533
  Br          2.43835087676939     -2.79006655640604     -1.14239977197617
  H           3.76224373303080     -2.94478522704112      1.51171855561486
  H           4.76125985450860     -1.77757385759875      2.42467361271565
  H           4.41747652407683     -1.51653364846773      0.71380843520070
  C           1.33912404576584     -4.91207996724492      2.16753162927231
  H           2.03430060229825     -5.67242186656807      1.81863759808352
  H           0.31192427051822     -5.23908707106050      1.97963106867837
  H           1.47079933525434     -4.75306826931760      3.24427900091524
