24
Coordinates from ORCA-job NEB_reactant E -43.065340748280
  C           1.66553816026385     -1.33994238696129      0.32173190131541
  C           2.06291714188498     -0.88069552539506      1.52347528295606
  C           2.44815533743658     -1.29753083524992     -0.91535955699707
  H           0.70206106604625     -1.81557275313086      0.22648635865566
  C           3.37387015586719     -0.22012038638417      1.80591115855324
  C           1.04555994206069     -3.78876829884050      2.54345365924040
  C          -0.00196166792067     -3.00240416942637      2.32154643883566
  C           0.01891430778340     -1.52342422083570      2.59666988101974
  O           1.31485302315669     -0.95241418272881      2.63681529303858
  O           1.16020896007859     -5.11458698392323      2.34043443402274
  H           1.97618321227186     -3.39287046244967      2.92898144851229
  H          -0.94011100001359     -3.37908245091578      1.94664423437331
  H          -0.39122504102005     -1.31443867500571      3.59156403879647
  H          -0.60036306045163     -0.99454845197357      1.85919503733266
  Br          1.43251632912271     -2.06683401482927     -2.39048629867372
  Br          2.95720932064919      0.53771319975629     -1.48501829049008
  Br          4.14664557406625     -2.33845412108745     -0.81045146951925
  H           4.20656411181186     -0.86019667251062      1.52089250157850
  H           3.43330663895519     -0.01260281123941      2.87073063612085
  H           3.46302966251958      0.71733758524610      1.25962910051520
  C           0.03972223260777     -5.80062839079563      1.83017604179482
  H           0.34048040187832     -6.84250391038864      1.74135190317019
  H          -0.24383935496138     -5.41731230139069      0.84504786750100
  H          -0.81533545409362     -5.72191877954005      2.50847839834736
