26
Coordinates from ORCA-job NEB_reactant E -42.152168194130
  C           1.85051424340892      0.10148539068306      0.28992006131066
  C           1.36470911388362      1.15113957129778      0.94671570822212
  C           2.02651876985252     -1.35194033106366      0.62000025338673
  H           2.22227790621405      0.32900088103561     -0.70093657131096
  C           1.33173977891476      2.51782329743857      0.31436750602246
  C           2.49169694924716     -1.26956918308446      4.22530027551060
  C           2.21430921489360     -0.15436725562161      3.56786818736770
  C           0.83143002088615      0.24149287671848      3.14602232625189
  O           0.81551428703233      1.27616206442306      2.20401000831862
  C           3.82758940046926     -1.70444389630652      4.67870463429656
  H           1.70612080525073     -1.96927880492689      4.48718742375310
  H           2.98618698689050      0.55457899356057      3.29952026836395
  H           0.31098950210463      0.66721159991984      4.01486645049958
  H           0.25168111533919     -0.62722508446316      2.80560255847292
  C           3.50525515515983     -1.73861248765945      0.54926348380673
  H           1.47916109832272     -1.93606532386020     -0.12691505369822
  H           1.63233473429050     -1.62450992245996      1.59505690199481
  H           3.90319348182082     -1.53965728572404     -0.44273517716300
  H           3.63375923158922     -2.79644705499122      0.76713860763750
  H           4.08674299576384     -1.16179032150781      1.26558830445355
  H           1.98068567978706      3.19469213928951      0.86770943554870
  H           0.32008783627641      2.91491497109373      0.36506904155897
  H           1.65327160195932      2.48114603712679     -0.72033837337280
  Br          3.83844409014044     -1.85744178545398      6.65441464546803
  Br          4.21700099468621     -3.49624480581541      3.94632595477504
  Br          5.28488500581622     -0.53315427964864      4.16997313852477
