26
Coordinates from ORCA-job NEB_product E -42.169861550650
  C           2.61922709523427      0.00681699337574      1.87542670824038
  C           1.81290827751243      1.26575537004879      1.54909936729271
  C           2.31061712425354     -1.08330389299670      0.82266424523075
  H           3.67937450775829      0.26817484864951      1.78608632914460
  C           2.22598539373190      1.99503620277493      0.30189361618854
  C           2.32565668135410     -0.41348297174801      3.33845601584022
  C           1.27834567450702     -1.48932113472206      3.46102786150692
  C          -0.00635572064265     -1.22270089849467      3.59586044782708
  O           0.90329769760826      1.64141028130032      2.24335179031209
  C           3.58479262141914     -0.82586272109471      4.07748190930199
  H           1.93691228399261      0.47882766395355      3.85039465597595
  H           1.63018411960289     -2.51335275093556      3.43985900399178
  H          -0.37090182542513     -0.20941731598714      3.61690416967646
  H          -0.73830909192006     -2.00723027361315      3.67478239450417
  C           3.36651436897149     -1.16736504556955     -0.27335216546222
  H           1.32604692320150     -0.89790937218461      0.38723631759894
  H           2.26086134949966     -2.05629030600270      1.30898153902751
  H           3.46702535236900     -0.23281099821031     -0.81750705874365
  H           3.09480655134055     -1.94509646461393     -0.98271402104892
  H           4.33373537453237     -1.42413923283549      0.15316204435397
  H           3.30422347041809      2.12608021841632      0.26743414088421
  H           1.73455130858753      2.96424889682811      0.27121167289695
  H           1.91822230071329      1.42394749389442     -0.57164646805887
  Br          3.15157699614063     -1.35384519592198      5.91467086085474
  Br          4.49502172374431     -2.32602702961698      3.22748532009932
  Br          4.86837944149497      0.65365763530587      4.18594930256437
