17
Coordinates from ORCA-job P E -25.297330751310
  C          -1.35170639871417      0.63293785154834     -2.13546128998286
  C          -0.38947521062933     -1.66830170504989     -0.54188924972654
  C          -1.19451357794488     -1.80112091713848     -1.79409295274490
  C          -1.62691060844148     -0.77784144079824     -2.51364703172158
  C          -0.97050634383089      0.76815269018002     -0.67242190197847
  C           0.13192873974375     -0.24494822965642     -0.33549816146561
  H          -1.40323106782940     -2.81214395760705     -2.11364940593472
  H          -2.16983306174806     -0.93958555275253     -3.43348585603945
  I          -3.09754556635225      1.89068939810041     -2.55357118533693
  H          -0.99586942943444     -1.96653843207604      0.31816647533145
  H          -0.57572094916154      1.04852955306790     -2.78230562824185
  H           0.46777156220257     -2.34284888980494     -0.59342227274142
  H          -1.83244382132847      0.55547773387115     -0.03739009879830
  H           0.41909551181106     -0.11466830919295      0.72206931631923
  H          -0.63169157509881      1.78552959557562     -0.45812469268442
  O           1.27036355035243     -0.08328228177410     -1.15448360084236
  H           1.61373824640392      0.81038289350721     -1.04632246341125
