17
Coordinates from ORCA-job R E -25.211615916660
  C          -0.98970439498781     -0.16567618646357     -2.94189310875716
  C          -0.10534038397985     -2.69769377399863     -1.63060866988645
  C          -1.35447261372232     -2.36947459079478     -1.94124163977227
  C          -1.78808087535852     -1.04317610996087     -2.35059745001912
  C          -0.96399472774639      1.77459075402554      0.64140867400885
  C          -0.32026632079636      0.71524784779148      0.18504147855665
  H          -2.14519955299580     -3.10501969961736     -1.86455826785428
  H          -2.82212586880115     -0.79456266007531     -2.15294803755160
  I          -1.59801793870452      1.77442257328831     -3.46637783381778
  H           0.15818228634897     -3.69692436257002     -1.33025047460277
  H           0.03831507477982     -0.36584564535952     -3.18547074452277
  H           0.69263622898673     -1.97446221481825     -1.64348455716444
  H          -1.79589635732843      1.67360930434220      1.31005502680054
  H          -0.58330715801234     -0.30018422828421      0.44436400490612
  H          -0.67467996277294      2.77497110604139      0.36452547729430
  O           0.73951159052893      0.73907869813275     -0.65927829468688
  H           0.97809097456199      1.65510918832084     -0.85314558293095
