20
Coordinates from ORCA-job NEB_product E -39.759512102930
  C           2.83734018719098     -0.03223528423056      1.35131866512259
  C           1.85191313331602      1.06501567459750      1.28569859217980
  I           1.74704285041967     -1.64616615044905      0.39815077372463
  H           3.69323174209873      0.13664494668619      0.69781801377774
  N           1.80907472727499      1.73923831347424     -0.11763683127991
  C           3.28933222118128     -0.44876148483483      2.74862476790767
  C           2.14529977102971     -0.62933981903989      3.70805622502175
  C           2.02979704971367      0.02749226710784      4.84555265188323
  O           1.09523288350756      1.48213681944595      2.09644960109870
  O           4.01060531666875     -1.64649941810373      2.54018076441577
  H           3.96635153382993      0.33824974848376      3.13030029825260
  H           1.42341306549223     -1.38008370183528      3.41625794052679
  H           2.74864385828996      0.77039926229821      5.15151643066130
  H           1.20035846711149     -0.13805278292183      5.51005372538656
  O           0.95217696634134      2.56340968586154     -0.26104109843346
  O           2.64720119721647      1.39871451757255     -0.91684394529128
  C           4.67768497015662     -2.13450248201972      3.67859672391331
  H           5.41630005839180     -1.40964551552643      4.04007968156505
  H           5.18278679509424     -3.04371344881122      3.36111889496664
  H           3.97811320567456     -2.36440114775522      4.48834812460052
