20
Coordinates from ORCA-job NEB_reactant E -39.768953446730
  C           2.16633172121679     -0.16491697390742      0.26786206957277
  C           1.79835273269000      0.66427989895542      1.24696684011993
  I           1.59789946395175     -2.15669824552103      0.31188260570746
  H           2.74621409385303      0.15990347802236     -0.57817448184696
  N           2.25737581503030      2.05298827484819      1.18143583955217
  C           3.84520412455248     -0.22134279979073      3.75770624749182
  C           2.56440980885764     -0.58191726489097      3.78896878808953
  C           1.46323117775627      0.40779670923440      3.59550273881643
  O           0.96507228543201      0.34006178586905      2.23512906676633
  O           4.93692677913476     -0.99837499067488      3.84795756372571
  H           4.13975764753930      0.81818651995608      3.67059975527724
  H           2.26236001950794     -1.61427204218753      3.86385866903086
  H           1.78546048522483      1.42678484370561      3.82453937298202
  H           0.58524339939232      0.15821948965035      4.19156008022578
  O           1.78966707814329      2.82550033468268      1.98617420515648
  O           3.07798151505931      2.32861967764718      0.33275494826316
  C           4.74545946683179     -2.39243769838764      3.95541564920448
  H           5.74126037710577     -2.82891806516563      3.99610525836422
  H           4.20741505300775     -2.78584817586510      3.08761447080782
  H           4.19607695571266     -2.64511475618042      4.86674031269276
