17
Coordinates from ORCA-job NEB_product E -38.848808313280
  C           0.86529112686702      1.68143696038712      1.76235249819130
  C           1.18216382390670      1.24929577680522      0.33819328677868
  F           0.12685556807191      0.72303073203704      2.39797818436088
  H           1.80697406902284      1.78559857858254      2.32270738235232
  H           1.83458822107158      1.98289015474308     -0.17540102515984
  C           0.09872012168861      3.02027718953864      1.73905633853881
  C          -1.27357961908465      2.85007495031171      1.14280629644286
  C          -1.70699623769798      3.54225893626326      0.10815281365858
  O           0.79412251022312      0.25368698547342     -0.18457104725947
  C          -0.02375309997244      3.59070963210393      3.15464198662324
  H           0.68330039106525      3.74987520698743      1.16813991028346
  H          -1.88951223882681      2.10728041148669      1.62895960365747
  H          -1.09947804623173      4.28659009956499     -0.38028757185491
  H          -2.69462751301942      3.39262043653495     -0.28955971060936
  F          -0.78796061056551      2.86513308073231      3.96594920088442
  F           1.17957459716508      3.70372665324500      3.74549347875164
  F          -0.54498306368357      4.82571421520268      3.12628837435992
