17
Coordinates from ORCA-job NEB_reactant E -38.843996838850
  C           2.02932214189965      0.04311159975242     -0.23016092751210
  C           1.35765371777227      1.18586696896304     -0.18689427247086
  F           2.13274738445503     -0.78433426096197      0.82251542986738
  H           2.54553018971389     -0.31886393613371     -1.10310892266082
  H           1.31770937654102      1.80188916050884     -1.07641550586961
  C          -0.90062870979965      4.39029520482053      2.51786903027669
  C          -0.63382970491639      3.16831655247471      2.08790799469677
  C           0.03943191548819      2.86336938433090      0.79005417807892
  O           0.71266313254456      1.63193027512123      0.92024301332023
  C          -1.61193906332466      4.66244577614754      3.80505044767560
  H          -0.64078842698668      5.28488289881182      1.97191954192486
  H          -0.90210880967024      2.29795671082004      2.67078469591536
  H           0.73817233638154      3.66502463509565      0.51248552954020
  H          -0.72950885902592      2.79261282599839      0.00240714834873
  F          -1.92733580476774      3.55748350887670      4.48884662734291
  F          -0.87862969996733      5.43154146217760      4.62878167494236
  F          -2.76406111633753      5.33037123319628      3.60321431658337
