19
Coordinates from ORCA-job NEB E -35.166531372130
  C           0.23777882259073     -1.05971714237596      0.52315803589532
  C          -1.03034655932621     -1.37587156746666     -0.04504502947963
  C           0.24062568386908     -0.62319444907915      1.88317906999811
  H           1.03783874635127     -1.76811122310837      0.31039215135575
  C          -1.07732758445739     -2.35515870312223     -1.06082221240815
  C           0.65532567209061      0.50264661175785     -0.41462017305935
  C          -0.45040638304232      1.31518800287598     -0.11427039601625
  C          -1.75434475331755      0.86407708071545     -0.53081786444490
  O          -2.02560853467671     -0.52299232785944      0.09873861805834
  C           2.03202006452850      0.95819698055679      0.02106439269450
  H           0.69932514272648      0.06795067433984     -1.41154903609326
  H          -0.38064053734534      1.96647881960192      0.74488830419831
  H          -1.84794243093850      0.66596589891674     -1.60036288730078
  H          -2.58248333488187      1.46403995960820     -0.16674754932272
  N           0.19921520394202     -0.31483956659311      2.98275905540981
  N          -1.11053968895031     -3.18819658715788     -1.85246465794707
  F           1.99590527162112      1.63014059716480      1.20910420473438
  H           2.43752370341902      1.65511172309556     -0.72338291563430
  H           2.72408149579740      0.11828521812969      0.14679888936187
