19
Coordinates from ORCA-job NEB_product E -35.196076853640
  C           3.06406277252446      1.04658729481863     -1.21149090531329
  C           1.89821292535559      0.36826198237372     -1.93230707370194
  C           2.84744543003132      0.94424249856346      0.21788919148258
  H           3.96929049271603      0.46646391600977     -1.44656974616577
  C           1.63799414522184     -0.95964609143629     -1.40222877253435
  C           3.22807311824169      2.51066497745627     -1.68275752007674
  C           2.20421200251639      3.39533966093916     -1.02346032934395
  C           1.19095871188639      3.94142418925590     -1.66633476689222
  O           1.28547262560628      0.85118115411555     -2.84268047281790
  C           4.64599193912598      3.01271176591698     -1.40229481653223
  H           3.07801583218793      2.52768303595810     -2.76809561482773
  H           2.35187986678301      3.55436392717465      0.03617217049271
  H           1.03085861157162      3.77892164708486     -2.71972371453577
  H           0.47355268658755      4.56498872480636     -1.16225711535418
  N           2.65493306550422      0.86289564699552      1.33957174653355
  N           1.46506295103936     -2.01341455022435     -0.99249525267732
  F           4.95013334701150      2.91665236040168     -0.06997148553475
  H           4.73789105578147      4.06848492070053     -1.67647207941977
  H           5.39665842030738      2.42109293908949     -1.93959344278092
