18
Coordinates from ORCA-job NEB_reactant E -42.919466082640
  C           2.16034913159689      0.46557538655475      0.21140717666863
  C           1.44433368004288      0.75534985633490     -0.87050959888492
  O           2.64615839627950      1.40355641522721      1.09369235374383
  H           2.35066562329504     -0.57594114614431      0.42056798208595
  F           0.99368236484525     -0.27699692135645     -1.60950325508345
  C           4.04558743344939      3.63569784727084     -0.57116351554880
  C           3.10772078841006      3.12814247476001     -1.35265849726960
  C           1.65351839844244      3.10290037412744     -0.99771897351616
  O           1.02412156818445      1.91178044919114     -1.42639753274792
  C           5.49638808334999      3.63420560580083     -0.92993032300116
  H           3.83443459813508      4.06823050162812      0.39462283696618
  H           3.35787889712646      2.68676993782523     -2.30881942561673
  H           1.13076342722209      3.89415674270819     -1.54565554791386
  H           1.51489322641053      3.25237753404735      0.07749600665389
  H           3.31564712397988      0.99369177024921      1.65022835646756
  F           5.74574233825372      3.17892345103993     -2.16355857476219
  F           6.03876309539305      4.86148438555319     -0.85453072742246
  F           6.21025182558329      2.86029533518241     -0.08736874081881
