19
Coordinates from ORCA-job NEB E -36.722821377240
  C          -0.90187628965865     -0.50349239984204      0.82605997556436
  C          -0.19969514897404      0.53334675929793      1.48149875777770
  N          -0.38383239088621     -1.76204308067637      0.83154423802139
  H          -1.97553146059320     -0.43518011952281      0.68852964474975
  O          -0.82469231134291      1.71847828014718      1.73772866291671
  C          -0.15627861448944      0.35911112446990     -1.08399533452062
  C           1.20919692203189      0.18144360903810     -0.88713883775885
  C           1.86627121471387      0.99908995271455      0.02751963455815
  O           1.05336734225485      0.48789919334885      1.58269668121022
  N          -0.89990794614645     -0.56476846006922     -1.84740810733247
  H          -0.61701804485865      1.33576741055414     -1.02609844163126
  H           1.63954108317852     -0.76504324133707     -1.18277719126414
  H           1.57008851981396      2.03434514236563      0.11724084887725
  H           2.89682099051558      0.79777386641738      0.27117774585473
  H          -0.67310592073774     -2.38388804749235      0.08378848739770
  H           0.61264035839695     -1.78351965787875      1.01423469945054
  H          -1.77790013782804      1.65420231160944      1.60859395611511
  O          -1.95199834459023     -0.18818943854040     -2.33206478073586
  O          -0.48608982080007     -1.71533320460411     -1.91113063925041
