19
Coordinates from ORCA-job NEB_reactant E -36.737772937210
  C           1.37714149843874     -0.30466902146520     -0.04723741210782
  C           2.18225910983921      0.62784753896189     -0.56325993844006
  N           0.06692281234758     -0.51842869540908     -0.48307680780302
  H           1.67417147696772     -0.86266026320345      0.82744347278143
  O           3.43659562853184      0.92745174268771     -0.07958800152136
  C           3.23116914935523      0.63360721189064     -4.78600798621557
  C           3.06117891649326      0.56796088803116     -3.46946170230776
  C           2.77292621334655      1.72535629820359     -2.57722745784850
  O           1.77928944187447      1.40046125534034     -1.61955999647981
  N           3.49568696461540     -0.54056804838274     -5.55765571335732
  H           3.19870165322241      1.53824867389854     -5.37306581930134
  H           3.11493322157020     -0.40177932630014     -2.98684543013220
  H           2.37813334358956      2.57548886984516     -3.13737656742699
  H           3.69679134587779      2.02883070895449     -2.06596680146808
  H          -0.20414471688065     -1.49200137936773     -0.49234820009506
  H          -0.11373343906608     -0.06319939022334     -1.36808110645483
  H           3.59072860787452      0.43065257698329      0.72858833929218
  O           3.53309626441485     -1.61146536444619     -4.98747219056101
  O           3.66775250758742     -0.38133427599896     -6.74840068055290
