19
Coordinates from ORCA-job NEB_product E -36.756554610290
  C           2.76712895255160     -0.00292006028310     -1.42695486532665
  C           1.51121978826267     -0.85196411659275     -1.14889865782514
  N           2.74156871547621      1.26856076234517     -0.74800392411987
  H           3.66474056796585     -0.56171891334015     -1.12862399384240
  O           1.61188181737413     -2.15108501878216     -1.45634809130429
  C           2.83524600180924      0.22146238066334     -2.96767199346961
  C           1.85841637397723      1.25246348854328     -3.43179982793536
  C           0.73445150605576      0.94994448214331     -4.05320042664654
  O           0.50870987816669     -0.37852001600295     -0.70379585736006
  N           4.24507654422095      0.60978470669303     -3.28213852047314
  H           2.67097099316485     -0.73569261953650     -3.47731548056328
  H           2.13071043648752      2.27293263341248     -3.21000175515206
  H           0.45519543161501     -0.06749735081520     -4.27561495802054
  H           0.03856254183912      1.71102733832953     -4.35699739491720
  H           3.02431482977546      1.17503854189752      0.21951799194249
  H           1.79627736409958      1.64135381786058     -0.76053670529227
  H           2.49553834965179     -2.41170556948251     -1.75212469150899
  O           5.07735724378903     -0.22642054341837     -3.01585075805091
  O           4.45663266371730      1.68375605636546     -3.76994009013417
