17
Coordinates from ORCA-job NEB E -36.588060108460
  C           0.89516113139557     -0.65030327210204      0.46559749252647
  C          -0.17947776404117     -1.35108678564127     -0.13203703449188
  N           0.70473553608647     -0.15963905869520      1.80547467723929
  H           1.88612108307210     -1.06951277424957      0.32260302969040
  O           0.16028752803590     -2.36355711541405     -0.95289053301272
  C           0.77743344833048      1.03727464981642     -0.55219834260028
  C          -0.52498645383435      1.44429914011769     -0.28437942463081
  C          -1.57416413415329      0.63150645760535     -0.76727911393744
  O          -1.37785446457070     -0.93934269354338     -0.10185660351324
  I           2.39595961373444      2.24896129401133      0.09789693783534
  H           1.01112631178297      0.59001418269114     -1.50961230993984
  H          -0.72203114647065      2.10031609488883      0.54865013268715
  H          -1.53131836006144      0.31828730017001     -1.80545840434135
  H          -2.57181582905459      0.86627913647205     -0.42413699580993
  O           1.65619508462503     -0.25872140719264      2.54886672246777
  O          -0.37354303675407      0.30362620645717      2.09762369474645
  H          -0.63182854812272     -2.74840135539184     -1.35686392491538
