17
Coordinates from ORCA-job NEB_reactant E -36.616198817880
  C           2.00718549607885      0.16670696879293     -0.12338348918164
  C           1.61216916084141      0.14349999048818     -1.43025228583358
  N           1.56645542472724      0.97206104282863      0.93190055029877
  H           2.75141030434964     -0.54901925393707      0.19634069024319
  O           2.02795638004126     -0.85903807185599     -2.21894985825765
  C           2.22085481329515      4.14607952513098     -2.69126228580771
  C           2.03719702577259      3.07726113607197     -1.94027473846885
  C           0.72777537340479      2.35398375025364     -1.86469916867044
  O           0.87132104731812      0.96180802364522     -2.14930338648797
  I           4.03760482892460      5.19135030216961     -2.76922467251604
  H           1.44929929562412      4.57755706504653     -3.30610616537610
  H           2.83879028028386      2.67779022372845     -1.33463358246356
  H           0.03557706902531      2.70742115252181     -2.63080250110576
  H           0.28169263360575      2.49617758563346     -0.87009722255904
  O           2.24514449442445      0.96710046047203      1.94183182405761
  O           0.52100263330025      1.59906303144302      0.81843831956259
  H           2.46246373898262     -1.56460293243341     -1.72232202743382
