17
Coordinates from ORCA-job NEB_product E -36.635602952990
  C           2.59487535645410      1.18490344432003     -1.16804499746870
  C           1.62024951256099      0.07882157889502     -1.74263614853184
  N           2.69310729436377      1.07110812428865      0.29428453916870
  H           3.58380394009501      0.91669025603117     -1.56626643683711
  O           1.73135965948498     -1.10511525693657     -1.19571151124102
  C           2.16440791541889      2.55526312606194     -1.67341260940116
  C           0.81836572473801      2.99701612268566     -1.21461221814654
  C          -0.13441955569487      3.35504324880083     -2.05623474310682
  O           0.89199872718044      0.34432446141760     -2.64709708908704
  I           3.67577509332379      4.04035906266677     -1.11148123373025
  H           2.19307402134200      2.53103105002277     -2.76385641802993
  H           0.66520498228729      3.04205554500806     -0.14600156389672
  H           0.00671246230242      3.32476300750464     -3.12364142709608
  H          -1.09985673027719      3.67429947025919     -1.70589035394727
  O           3.06117759904493     -0.02166787902566      0.70334421571386
  O           2.40374417694564      2.00306312556195      0.98675946404687
  H           2.33801982042981     -1.12535848756205     -0.41200146840896
