22
Coordinates from ORCA-job NEB E -52.738592205920
  C           1.40900575273182      0.53316882918145     -0.12173789534864
  C           0.41248099243543      1.43412697390228      0.34637199644760
  C           2.00751640096844      0.28410488658389     -1.33014886010674
  H           1.68566128621139     -0.16295680327407      0.66053457912482
  C          -0.19247967246383      2.52709126904052     -0.55450755338984
  C          -0.59608193181106     -2.01302259906761      1.01047067335857
  C          -1.50090708663484     -0.97134180119603      0.67814030884061
  C          -1.96122391922641     -0.11398426826294      1.60457977532977
  O          -0.01196901378079      1.35152641524138      1.49341862405310
  N           0.03074853686607     -2.68538021636319      0.10677776882527
  H          -0.43343555001971     -2.23035538211601      2.06381692118134
  H          -1.71333464167993     -0.83010568995914     -0.37209705175933
  H          -1.72261825387561     -0.22485378833844      2.64910509365262
  H          -2.60085942647162      0.70991505044446      1.34138080910289
  Cl          0.40021769158968     -1.29805907923728     -2.38075802325067
  Cl          2.05696667735070      1.30971380050124     -2.67936817231815
  Cl          3.29144317463276     -0.86185468482464     -1.32166963962642
  Cl         -1.46232270501333      3.38215881754477      0.34151339332347
  Cl          1.04747286646395      3.71636349127140     -1.00055392167959
  Cl         -0.93557883675324      1.80955218292014     -1.99073684469292
  H           0.07502358774571     -2.27978077325760     -0.90548070438479
  H           0.71427407073442     -3.38602663073459      0.36094872331703
