22
Coordinates from ORCA-job NEB_product E -52.784190077890
  C           1.72173746586209     -1.07520922196630      1.04454569758091
  C           2.98176901846170     -1.04860348941948      1.95912256429856
  C           2.00906479779722     -1.78224097804156     -0.26689988443696
  H           1.40757022611227     -0.05915280201752      0.79486141801717
  C           3.10261601369725      0.23154608351531      2.82557723634358
  C           0.74415338056254     -1.75220993546162      2.04093039015421
  C          -0.11283536516636     -2.88041599124665      1.55550051402653
  C          -1.42554580561288     -2.79033325006428      1.44591322286620
  O           3.97578677464754     -1.70402327587885      1.78352628832222
  N           1.71867942203526     -2.14375130835826      3.07348691960969
  H           0.09596587303739     -0.97668208965258      2.45478735594784
  H           0.39887541418940     -3.80150085195321      1.31910827914938
  H          -1.95583521623329     -1.88047983886089      1.67424298045241
  H          -2.02079328331923     -3.61936657982701      1.10633193648181
  Cl          2.59088936152495     -3.43619082797699     -0.06726797996777
  Cl          0.53160997311059     -1.81354545434930     -1.26094366901988
  Cl          3.25002204713874     -0.85869464802472     -1.15335191646497
  Cl          4.19332935814107     -0.07991262629521      4.17631400367834
  Cl          3.82726087819499      1.44025124825015      1.72958909608839
  Cl          1.59551476917530      0.89647243265730      3.45122691004291
  H           2.07046434883779     -3.08546206550682      2.93193124069189
  H           1.40100054780568     -2.02649452952152      4.02836739613756
