83
Coordinates from ORCA-job A2R E -109.248186848160
  Ru         -0.29233265627202      2.19351894369693      0.52853782676463
  H          -0.37123800833450      0.63947207663906      0.63587226606918
  N           1.22037103372946      1.85933980818650     -0.86444548136271
  C           0.92768575820049      1.39910488074807     -2.09407793554259
  C           2.51586238180589      2.05236556546742     -0.55544623017170
  C           1.90624743726983      1.14179181158227     -3.04208835515756
  C           3.53987252630117      1.77545634951394     -1.45008329274707
  C           3.23980709152453      1.31767459562127     -2.71960380055659
  H           1.61378584682825      0.79009725956631     -4.01984208551251
  H           4.56372194406965      1.93013919453019     -1.14582950016417
  H           4.01929937919493      1.10515952014709     -3.43415645574354
  P          -1.60203399736342      2.13650152708097     -1.33827030939474
  C          -3.22797682140575      1.15205680231430     -1.42256772514823
  C          -1.80107443254164      3.72925100915163     -2.37383268177917
  P           1.44051328413050      2.26832926214961      1.96122552649886
  N           1.65910098662435      3.48743813593603      3.08808365242157
  N           2.10316848415795      0.93372639426179      2.80888723864514
  C          -0.50502907682490      1.12030750050322     -2.42627118819997
  H          -0.71495306913030      0.07988994288898     -2.14963530204227
  H          -0.69734955719848      1.23447043045042     -3.49701396513660
  C           2.83253292968650      2.62506897886692      0.78675311365025
  H           3.81656564920989      2.30952217101041      1.14547977554153
  H           2.81961100048283      3.72144302414490      0.71287647942360
  C          -1.64461737798251      2.38848644634854      1.75784047052566
  O          -2.50440619781763      2.46022602796852      2.53460742315725
  H          -0.06384503477146      3.72064095226176      0.39406981764905
  C          -3.57685737475121      0.55595076473577     -2.78732552661703
  C          -3.08428969130811     -0.00279972189186     -0.42914649460239
  C          -4.35504721331874      2.05370332753533     -0.91774695370804
  H          -2.80241058623105     -0.12476385482627     -3.13405313769086
  H          -4.50150456281810     -0.01380156760048     -2.69034602160388
  H          -3.73729835534732      1.31342645631564     -3.54520492763742
  H          -2.90950007611305      0.37977719771604      0.57476586112289
  H          -3.99564045362558     -0.60080184555807     -0.42141585751164
  H          -2.25254793971657     -0.65256284567600     -0.69307690014924
  H          -4.02808442247815      2.58196456060797     -0.02052977410042
  H          -4.65959234525097      2.77883568511011     -1.66802959908048
  H          -5.22778579926349      1.45367501438623     -0.66077963961081
  C          -0.37766494871720      4.19116067492320     -2.70371759651819
  C          -2.57457259180523      3.60248661979701     -3.68412750292025
  C          -2.45052665990773      4.78756225465395     -1.48101668336314
  H           0.09870284840850      3.54672810519289     -3.44115394876228
  H          -0.40302748366720      5.20237052244399     -3.10931906573911
  H           0.23245018589764      4.20968443427721     -1.80112870766319
  H          -3.63581166121253      3.44421126784858     -3.51409869612822
  H          -2.46907224876330      4.53228865478674     -4.24362442515783
  H          -2.18556547708501      2.79814295170097     -4.30551110626949
  H          -3.51346391023613      4.60991923245679     -1.34731948141451
  H          -1.97358560823195      4.78195671080773     -0.50098108417682
  H          -2.32677535200872      5.77697063859249     -1.92030719784813
  C           2.45556586875266     -0.21876379074874      2.00244549236540
  C           1.23196380598721      0.53819672623473      3.90521143492607
  H           3.08153634586300     -0.88606184910652      2.60042313334496
  H           1.57059478657855     -0.77262289807790      1.67359875222503
  H           3.01244501560043      0.08087356294923      1.11612544384560
  H           1.76776254238964     -0.15385149059317      4.55816873462564
  H           0.94726347701100      1.41966537958684      4.47963512232329
  H           0.31511918870630      0.05199649165326      3.54696972460120
  C           2.85254171892065      3.54845955874741      3.90369587821819
  C           0.55894347285915      4.28140845760833      3.58336306704360
  H           3.58053706003777      2.83067361385676      3.53304928728933
  H           3.28285876724397      4.55409503743001      3.86160383018764
  H           2.63760638286636      3.31497483865354      4.95271228646890
  H           0.83370102523355      5.34087367239862      3.58060445139044
  H          -0.29834971931457      4.13856051330943      2.92442365186074
  H           0.27678642851032      4.00385518035788      4.60635114851837
  C           1.35309555588927     -2.12647668714133     -1.23612728476712
  O           2.42914373570357     -1.58251240554242     -1.11861267745878
  C           0.67145012330703     -2.20388288064923     -2.55622176463525
  C          -0.69350854434613     -2.45306251451253     -2.69366975979750
  C          -1.27181154401491     -2.48207602805210     -3.94995301037590
  C          -0.49750974218150     -2.27996707556389     -5.08153591443067
  C           0.86207876107352     -2.04394923671425     -4.95554968894381
  C           1.44043470420499     -2.00018204251845     -3.70157559845866
  C           0.63806539495227     -2.75378318492568     -0.06896309317348
  H          -1.31370675872908     -2.60842003676740     -1.82370973579365
  H          -2.33154363903541     -2.66717488369123     -4.04840080517869
  H          -0.95422182325973     -2.31006238799730     -6.05980418630904
  H           1.46887432462356     -1.89344078274104     -5.83657867084703
  H           2.49744901355613     -1.81449694238366     -3.58071084666205
  H           1.35188482340975     -2.95725701620048      0.72523341122651
  H           0.13019964181863     -3.67103415510381     -0.35382952212275
  H          -0.09846797024040     -2.04031859312805      0.30465289395667
