83
Coordinates from ORCA-job A2S E -109.246356513500
  Ru         -0.26549639463596      2.19181968223538      0.15349019600649
  H          -0.21451505345103      0.63357153821725      0.09642144260136
  N           1.18865439973268      2.13035243159095     -1.32836602143168
  C           0.88135305164545      1.71325567343144     -2.57171120058238
  C           2.47601711656451      2.42347135184223     -1.05998028431882
  C           1.84181541126684      1.56625072834108     -3.56142191952626
  C           3.48001525033108      2.28541529441573     -2.00830360338135
  C           3.16835460368591      1.84803111240289     -3.28329087653647
  H           1.54490044207451      1.22521271686949     -4.54174843117692
  H           4.49718114493895      2.52764268145881     -1.74070799286555
  H           3.93221621935745      1.73372330277997     -4.03605939078775
  P          -1.65152666030118      2.22746523064281     -1.66230927514683
  C          -3.23463416951571      1.17841729791309     -1.77533867249886
  C          -1.96214558941067      3.89638908436192     -2.53781416054272
  P           1.53856676938285      2.26737254927191      1.50296963856066
  N           1.71145258445234      3.32803996467676      2.78270617078506
  N           2.39251336387878      0.90439179747432      2.09978311469586
  C          -0.54532534766818      1.36771570521155     -2.87368365753309
  H          -0.68535106673687      0.29679293891956     -2.68293213473225
  H          -0.78854169154448      1.56584840693587     -3.92142927704531
  C           2.79178012782907      2.93544942221742      0.30430267879579
  H           3.83289754107464      2.75508641742767      0.58548436718968
  H           2.59978963405277      4.01698533003677      0.33211185232847
  C          -1.55229246215261      2.11351091878565      1.46468620453814
  O          -2.35889376922059      2.00196242882314      2.29069777201589
  H          -0.18251824732005      3.73872227753199      0.19319428947361
  C          -3.63066750585891      0.70874802306467     -3.17579955837924
  C          -2.99282316697234     -0.06587372740342     -0.91782874035663
  C          -4.36704342602537      1.97445546213606     -1.12586675371960
  H          -2.84604835843056      0.10955311004485     -3.63219365395934
  H          -4.51832634002108      0.08130807821555     -3.09221436627262
  H          -3.87161858226487      1.52929811917574     -3.84075479857546
  H          -2.71843299019734      0.22008880398142      0.09635112867790
  H          -3.89979330751864     -0.66926306068708     -0.87807112399789
  H          -2.19774218133267     -0.68137966775411     -1.33380470596352
  H          -4.01270296066840      2.42819053583865     -0.19844666813268
  H          -4.74079212649099      2.75388441435313     -1.78472494167009
  H          -5.20034060674127      1.31440247028630     -0.88619732324756
  C          -0.57648552213255      4.46322782731456     -2.86525081082010
  C          -2.77316396449543      3.84937248681135     -3.83071891785653
  C          -2.63348088193269      4.83510542997089     -1.53383714589175
  H          -0.08702532865130      3.90817636489712     -3.66446226676020
  H          -0.67045519054366      5.49956593131615     -3.18894456485588
  H           0.05810797594407      4.44812058053739     -1.97966480819389
  H          -3.81928534745063      3.62461734776842     -3.64304453936098
  H          -2.73134431895911      4.83048791652377     -4.30455781905821
  H          -2.37014303064125      3.12553771271957     -4.53648339522266
  H          -3.68478656875545      4.60054427947843     -1.39760821795390
  H          -2.13412241728577      4.75835606917338     -0.56819191622389
  H          -2.56117748071631      5.86590048441616     -1.87892724987359
  C           2.81916747903607     -0.05841882141920      1.10257675308721
  C           1.61920704385477      0.25361720655482      3.14782744100975
  H           3.39163287457730     -0.84615273695534      1.59513074729884
  H           1.97251296825805     -0.52518178454054      0.58636820461318
  H           3.45699268856604      0.42149423282011      0.36148004839537
  H           2.24830684994750     -0.47633530347983      3.66038168747160
  H           1.28545055114065      1.00265892465277      3.86638794745459
  H           0.73572812711895     -0.25930151138228      2.75023518508720
  C           2.93991126783304      3.39503839708369      3.54440194431419
  C           0.57749576739128      3.95565541014481      3.42046606534655
  H           3.70290251948243      2.79595393097776      3.05273325273527
  H           3.28210168895415      4.43250266129622      3.61211271957894
  H           2.80285486381983      3.01470092459277      4.56274162525655
  H           0.76674819682911      5.02601802157459      3.54814930249768
  H          -0.29748097762718      3.82705503808097      2.78197070267079
  H           0.36959422732452      3.52424149944280      4.40695080857353
  C           1.12986899044188     -2.97663464851240     -0.03835878498955
  O           2.22126161373412     -3.48369804265911     -0.18987859465348
  C           0.49128164695375     -2.89283739920110      1.29952031672064
  C          -0.75223470474002     -2.30184116490358      1.51973077902480
  C          -1.27175394742931     -2.23399163335087      2.79969918518198
  C          -0.56686948721681     -2.75841064700321      3.87122747517139
  C           0.66674814367779     -3.35510166755905      3.66190474926755
  C           1.19139564030968     -3.41921581891993      2.38688266095112
  C           0.37025621529527     -2.38041796067764     -1.19727234465698
  H          -1.31739489138398     -1.87797362136427      0.70655299256489
  H          -2.22908725251803     -1.76166836179579      2.96223314703929
  H          -0.97806473009746     -2.70034907673220      4.86829393674481
  H           1.21787891866783     -3.76667158164880      4.49491028582133
  H           2.15323813831743     -3.87498046546070      2.20206348241170
  H           0.94982503997747     -2.49841483926464     -2.11016729819988
  H           0.20551049784928     -1.31966888063077     -1.00492545196644
  H          -0.59395954851347     -2.87179155575476     -1.31013864304088
