83
Coordinates from ORCA-job A3R E -109.213171928570
  Ru          1.67173121621677      3.57109403237956      0.11233553668439
  H           0.22338533110266      2.68739163522770     -0.45579142363510
  N           2.54862956495303      2.37417510135836     -1.36652202248977
  C           2.40123904209287      2.63719213617262     -2.67433413994664
  C           3.29616369183992      1.28529051007526     -0.97953078359589
  C           2.98396820352121      1.88038318815630     -3.66564431016683
  C           3.93854661518354      0.49501127649051     -1.98107554526466
  C           3.78447819777641      0.78640190324251     -3.29857876692130
  H           2.82678146072604      2.12843235247242     -4.70366729608704
  H           4.54126830299241     -0.33883817389715     -1.65543016865535
  H           4.26246851794398      0.19012612049521     -4.06226080183455
  P           1.50707394369191      5.02095400903083     -1.67979451139874
  C          -0.05767573428871      6.03676094532713     -2.03356434906409
  C           3.04612452186633      6.07829510826590     -2.02967308925513
  P           2.59495022167243      1.97877397286072      1.52831880593738
  N           3.80651052573196      2.64796775000261      2.50760575762388
  N           1.91483115018439      0.86231537805006      2.64886557309297
  C           1.52487931602754      3.80320256726357     -3.06129614307807
  H           0.49521331873514      3.44240697202825     -3.18882213388933
  H           1.84875790461164      4.24073209120737     -4.00954724968392
  C           3.38443433259072      0.94046108006567      0.35866583584799
  H           1.00142977714699      0.63572620898599      0.28183354689340
  H           3.98838562253383      0.09291793441861      0.65149804261628
  C           0.79521488711181      4.54305143271980      1.39961049022719
  O           0.20076258240829      5.12277908624491      2.20972852577658
  H           2.99527547202670      4.22790547819795      0.40694228065931
  C          -0.34198291963961      6.30941284511311     -3.50961498928466
  C          -1.20954055089260      5.20078050000988     -1.47011284684578
  C           0.00332385594732      7.33951767017898     -1.23748157994836
  H          -0.47486071178932      5.38333173719998     -4.06461324232782
  H          -1.26888389969736      6.87748260249502     -3.58917857415297
  H           0.44320793340345      6.88851529432360     -3.98244784806186
  H          -1.05185171343968      5.00238584941894     -0.40804059959176
  H          -2.15008928842431      5.74021604183513     -1.57629963834456
  H          -1.31114402627936      4.25473290869282     -1.99884795133665
  H           0.34219708455128      7.13792390654269     -0.22073296535814
  H           0.66963634797529      8.06306132202351     -1.69865757350733
  H          -0.98803344098190      7.78868687355188     -1.18418888038565
  C           4.21776773197820      5.10146952150954     -2.17632387317680
  C           2.97315115999644      6.93430982889202     -3.29304071196566
  C           3.31347744721799      6.96359676474137     -0.81009124155248
  H           4.13845216387486      4.50678096812283     -3.08371656334978
  H           5.15270021725748      5.65864592600390     -2.22174358704076
  H           4.26809761395607      4.42986001209453     -1.31808423505825
  H           2.25986338159147      7.74764133049278     -3.19134978677731
  H           3.95216686736383      7.37853026920335     -3.47198492241478
  H           2.71688254697904      6.33988940596121     -4.16791714594991
  H           2.62380286703748      7.79971410217348     -0.75362619090143
  H           3.22137191678881      6.37242703282975      0.10245004304598
  H           4.32430982753620      7.36539523487563     -0.85990160773812
  C           1.52235438671289     -0.49921411660865      2.37662188199196
  C           1.28152717250762      1.42428758827821      3.82074686529802
  H           1.83023365427506     -1.13544198577502      3.21308458690071
  H           0.43694235639874     -0.60978587689090      2.25311586859581
  H           2.01987330399651     -0.85451266444166      1.47533899840114
  H           1.69622438838413      0.97757199052359      4.73106301138012
  H           1.45558078898292      2.50105174254456      3.84361239683338
  H           0.19852498902935      1.24780491349610      3.82746757432527
  C           4.71593379978164      1.73864963103844      3.16973109949729
  C           3.74281440821406      3.94163130686574      3.14605021649031
  H           4.67386889126210      0.76735938163782      2.68192043994546
  H           5.73792471808317      2.12256948277489      3.10431209199367
  H           4.46534027644139      1.60853999701354      4.23016845100779
  H           4.70762422738119      4.44867484888159      3.04697320046096
  H           2.97874024774035      4.54880172814748      2.65965458813467
  H           3.51148809618102      3.85739972013425      4.21576853468993
  C          -0.46140535769412      1.76129776040780     -0.36644376404194
  O           0.30067840213709      0.58601090030812     -0.38971556951104
  C          -1.33487901975547      1.72102417302106     -1.60405446470408
  C          -2.65793968661227      2.14615550386570     -1.61740626514081
  C          -3.39850879309982      2.09204901333449     -2.78628873982313
  C          -2.83222278143086      1.61288319335035     -3.95442642159180
  C          -1.51803596655681      1.17717308746779     -3.94689444645817
  C          -0.77654417064978      1.22989207677951     -2.78122589649922
  C          -1.24483497710329      1.90003512491597      0.93980468966991
  H          -3.12301210867148      2.52784406173433     -0.72254425691834
  H          -4.42538035312849      2.42701183019826     -2.78103315166412
  H          -3.41336718139848      1.57472749507295     -4.86391816359064
  H          -1.06652698940026      0.79410633132371     -4.85028660542881
  H           0.24350634239656      0.87547271604686     -2.77185488172875
  H          -0.55435606422291      1.85597445739673      1.78117517070548
  H          -1.96110552269455      1.08401476957403      1.02625371049672
  H          -1.76920187619808      2.85126177245374      0.98780410191425
