83
Coordinates from ORCA-job A3S E -109.214134772430
  Ru          1.64700959568127      3.68179997250982      0.06667980848604
  H           0.11254182764464      2.63363371028117     -0.18528759274790
  N           2.41495009106213      2.38652424387481     -1.39730149194835
  C           2.19187124768701      2.57196412250528     -2.70715235405319
  C           3.22310633178034      1.34739652045527     -0.99727292571731
  C           2.74286071484142      1.77856957439788     -3.68771558709923
  C           3.83674611233019      0.52271779544373     -1.98851390791635
  C           3.59863487746397      0.73234650633864     -3.30894332890552
  H           2.52282436985113      1.96434288789761     -4.72746550509561
  H           4.48866293930978     -0.26902680087941     -1.65269042196731
  H           4.05550402158895      0.11033498914225     -4.06507557632382
  P           1.33413580783397      5.00256623196568     -1.80617299476498
  C          -0.25689971585057      5.99399477853336     -2.12440298199768
  C           2.83630839613009      6.04646779269476     -2.32100550006868
  P           2.68226077014363      2.19019727583089      1.50489276591441
  N           3.97031193690334      2.91420239337089      2.34413711789035
  N           2.07102633247234      1.16307781681852      2.73318551863587
  C           1.27595005450298      3.70144703516616     -3.10890225132395
  H           0.24458673399486      3.32879346504229     -3.14749816806619
  H           1.53378856161777      4.08195578617079     -4.10110841925198
  C           3.39316738823477      1.07772637144252      0.35127954808781
  H           1.14368939990850      0.57074344495290      0.19768550255587
  H           4.05297258841944      0.27560253170176      0.65249059898166
  C           0.96841180559544      4.83332611198879      1.32346095559249
  O           0.56999713041167      5.60251538139135      2.09574666492298
  H           2.99926640171746      4.33039548442820      0.17769601486849
  C          -0.61805754674750      6.22848163267867     -3.59044377868557
  C          -1.37161155378961      5.15943808180062     -1.48845227336383
  C          -0.17128692283455      7.31757014165954     -1.36596415654580
  H          -0.68240317642421      5.29238115220082     -4.14043864536916
  H          -1.59609497118109      6.70780320860912     -3.63703011537921
  H           0.09027372904650      6.87714959719184     -4.09262483596481
  H          -1.13272442433581      4.93525670148656     -0.44658105581306
  H          -2.31190211529544      5.70945359020729     -1.50766028458120
  H          -1.51967766154426      4.22877500422969     -2.03079948702129
  H           0.21680669990850      7.14831672595893     -0.36110495776139
  H           0.46776615827193      8.03208553223472     -1.87710707241307
  H          -1.16232243004537      7.76249373538323     -1.27946803003542
  C           4.00509527965090      5.07300878621830     -2.50594406481990
  C           2.66320120036158      6.83777909633648     -3.61659419574530
  C           3.18212228779242      6.99546955358712     -1.17096846464777
  H           3.86970473601787      4.43859260755208     -3.37922600737220
  H           4.92859940798753      5.63488224939347     -2.64028479425152
  H           4.12280141047382      4.44001197997738     -1.62557782460746
  H           1.97343606490569      7.66824615726033     -3.49400144088770
  H           3.62815552087965      7.25495872391240     -3.90383881246483
  H           2.32206877076580      6.20449158531060     -4.43313994522101
  H           2.48095301900012      7.82077835021558     -1.09798349375788
  H           3.17679066699337      6.44960563977831     -0.22620430049036
  H           4.17658950867279      7.41239261178417     -1.32224324530088
  C           1.74934113790798     -0.23629662926254      2.61259072923938
  C           1.44350850970128      1.81556920304556      3.85931690488393
  H           0.66691796228050     -0.41009352675152      2.58401316864018
  H           2.20303288216415     -0.64265556842202      1.70955276894858
  H           2.15448306048520     -0.77680930630851      3.47518230292294
  H           1.88784739243191      1.46937459165024      4.79920625875685
  H           1.59067306375238      2.89358199390093      3.77343544009027
  H           0.36725643811807      1.61507884736761      3.89627753611318
  C           4.89069193214215      2.03526204176885      3.03265091193567
  C           3.95286217970438      4.24561436569079      2.90277647060242
  H           4.81487813507267      1.03314705697431      2.61642718997226
  H           5.91479316734652      2.39552446401045      2.90050198134687
  H           4.68099366625157      1.98258891325827      4.10863618039263
  H           4.92603509641410      4.72082779016812      2.74480835572818
  H           3.19014238748503      4.83944772036402      2.39966817722643
  H           3.75033087854369      4.23513568020193      3.98163638856648
  C          -0.46438258577132      1.63671668402941     -0.12674425540484
  O           0.37680885021335      0.55503712669264     -0.40193691874004
  C          -1.14200308486904      1.53205772350513      1.22331285276749
  C          -1.44090444867841      2.65110168901779      1.98411809835255
  C          -2.12315591686489      2.52332719020059      3.18166926324463
  C          -2.51909068735921      1.27289666727536      3.62573826908849
  C          -2.23065447340718      0.15079143344495      2.86707813071335
  C          -1.54922061810565      0.27961726047171      1.67017156905623
  C          -1.55513134237765      1.61385495215587     -1.20114976414664
  H          -1.13250177998754      3.63083510236077      1.64383893324427
  H          -2.34177638624034      3.40290441317122      3.76850228162546
  H          -3.04964171352383      1.17314667315577      4.56110839210721
  H          -2.53741208991568     -0.82763560990125      3.20730200178477
  H          -1.32571837303298     -0.58943213959339      1.06742062579511
  H          -2.05258011077363      0.64722808303507     -1.15342566206274
  H          -1.11425167119983      1.71403455061841     -2.19014985886715
  H          -2.28912083771491      2.39584269427022     -1.02889893011166
