83
Coordinates from ORCA-job TSA2S_3S E -109.197966577310
  Ru         -0.15634676321253      0.43069927851354      0.18705147466755
  H           0.21575353214507     -1.38316408117129      0.00773194621613
  N           1.30588624569115      0.49252199644315     -1.33802869465762
  C           0.98414005915908      0.59950132610888     -2.63029828625548
  C           2.60482570287668      0.56281635177193     -0.96527147780931
  C           1.92509738106615      0.88643067884728     -3.60541692800649
  C           3.59584432528273      0.87561267172383     -1.91122759628224
  C           3.25290410457597      1.06022736617673     -3.22756649709802
  H           1.62774616448314      0.96558708012992     -4.63949703870336
  H           4.62068903520562      0.95818189108854     -1.58538298611887
  H           4.00069824903171      1.31011040756018     -3.96535375310753
  P          -1.55380119526512      0.78947955815154     -1.62414623555408
  C          -3.12232841080287     -0.23318532701272     -1.94982375750340
  C          -1.91140013590544      2.61488032275255     -2.03590686620229
  P           1.67864022680833      0.55147448771580      1.58498391813465
  N           2.03293374488827      2.13971189446962      2.08013478540569
  N           2.16763689394150     -0.32526751384139      2.95769793780751
  C          -0.44031714465401      0.30948041144932     -3.01612386278804
  H          -0.53651817304783     -0.77738348285681     -3.13435856545994
  H          -0.70673271144539      0.78177779768015     -3.96488435629856
  C           2.93835360574963      0.13159808084680      0.37275267140942
  H           2.62959986701080     -1.14841189639405      0.21627550575401
  H           3.98349969250853      0.25039995344956      0.64939661804418
  C          -1.44658278149741      0.47474552362983      1.49304982742605
  O          -2.26506640587849      0.59004240006536      2.30576562111272
  H          -0.06329275411813      1.93538893999676      0.22596467006811
  C          -3.55598588989630     -0.37255539759448     -3.40824339528105
  C          -2.78325613705999     -1.62731156874934     -1.41946518023975
  C          -4.25440846907515      0.33280815352473     -1.09321953386551
  H          -2.74567294134725     -0.74165652813102     -4.03275610972551
  H          -4.36916687673909     -1.09662640028009     -3.46056705113361
  H          -3.91994602199842      0.55896204765221     -3.82577244253544
  H          -2.41025775721971     -1.56304929629500     -0.39462075045081
  H          -3.67071488557082     -2.25923139789945     -1.41961978121035
  H          -2.03227443369057     -2.10756547063607     -2.04186879977595
  H          -3.88991428633402      0.54666682301511     -0.08757342963716
  H          -4.66845923496322      1.24190084678135     -1.52068876815591
  H          -5.06223712590374     -0.39427464743413     -1.01594435952997
  C          -0.55949224102397      3.29122924230124     -2.28897499942222
  C          -2.78955101497911      2.84335623574256     -3.26529189495752
  C          -2.55689998061622      3.26534189518273     -0.81079682660776
  H          -0.12423891507195      2.98478841810564     -3.23755115315873
  H          -0.69352389793584      4.37179857742602     -2.31688149717598
  H           0.14361915324449      3.06361959565742     -1.48742461993941
  H          -3.82112942182612      2.55618297505919     -3.08368804961263
  H          -2.78477540850617      3.90643361118760     -3.50541172067658
  H          -2.41531967301786      2.30716964425367     -4.13494195525692
  H          -3.57974306602592      2.93167815155003     -0.66673766801526
  H          -1.98512585745516      3.02049260086309      0.08450524998961
  H          -2.56913703038617      4.34795960353011     -0.92775918867006
  C           3.03435549802056     -1.47991814210481      3.01592252956841
  C           1.22720114059358     -0.26580245880366      4.05930631003108
  H           2.47402336005015     -2.39445811868800      3.22981648225656
  H           3.56352585864500     -1.61435078001694      2.07742698492155
  H           3.76699722753764     -1.33159351133391      3.81693957393253
  H           1.75931706402770     -0.07924525217757      4.99753249491398
  H           0.51719296998446      0.54580490199507      3.88577558750156
  H           0.66368011327785     -1.20015530894713      4.16230646862867
  C           3.32673304382507      2.37983181444309      2.68596975190970
  C           1.01685847019968      3.03013483634865      2.59836453616844
  H           4.03876577838935      1.63214477986173      2.34353178338558
  H           3.68593406523018      3.37039544681367      2.39450939500782
  H           3.28200681565800      2.33773971037269      3.78095436463691
  H           1.21525256846432      4.04939057272118      2.25403024817203
  H           0.03975706801000      2.71824222968018      2.22727638166790
  H           0.99844075399231      3.03721916167198      3.69492065428053
  C           0.83325609000796     -2.45235693628499      0.04895943359376
  O           2.13445277554264     -2.30068719539375     -0.19449788995948
  C           0.49844837110100     -3.06767184258565      1.39828955382765
  C          -0.58605824872112     -2.68026737536658      2.16660622553872
  C          -0.87631125623970     -3.32742202060537      3.35562622541379
  C          -0.08410878336849     -4.37856958439828      3.78502941422414
  C           1.00181534458194     -4.77484563168022      3.02157580640596
  C           1.28987353686423     -4.12441267912522      1.83594825852045
  C           0.19312246104853     -3.36000465051995     -1.02263153530448
  H          -1.20748836106846     -1.85285873223266      1.83883144110131
  H          -1.72261855365292     -3.00767620836853      3.94687639731933
  H          -0.30953347268528     -4.88366899112511      4.71314510290015
  H           1.62710888513471     -5.59182947105458      3.35241662788316
  H           2.14221687568184     -4.41175397038514      1.23764988027485
  H           0.75121711152457     -4.29460172752880     -1.03089408306023
  H           0.28859309114280     -2.90481309910290     -2.00648463632146
  H          -0.84827860399893     -3.57331359818667     -0.79725391849716
