83
Coordinates from ORCA-job TSA2R_3R E -109.197884791840
  Ru         -0.16837258208064      0.36901862295418      0.83939772313088
  H           0.10877617166081     -1.36695229406818      0.62025384699604
  N           1.27723918909643      0.45053007565573     -0.69394113698625
  C           0.94882036959091      0.55961771420329     -1.98407328190911
  C           2.58562947112428      0.39880386152271     -0.33705145096205
  C           1.89646971416602      0.76657557083378     -2.97387797754064
  C           3.58511920702883      0.62606645469977     -1.30277283488268
  C           3.23850132023680      0.83795738732490     -2.61405859592679
  H           1.59146429330185      0.85795860744262     -4.00426673616310
  H           4.61868003048840      0.62066616911490     -0.99359308984325
  H           3.99441398421502      1.02542567444693     -3.36209958959673
  P          -1.56685532296410      0.83587621933045     -0.94006269994410
  C          -3.17392244501784     -0.11961839130746     -1.25837086067586
  C          -1.85504205960680      2.68043330692625     -1.31935054663657
  P           1.68038177656800      0.39844746929493      2.22183091777765
  N           2.11332143289201      1.96113670985899      2.74347116607426
  N           2.09065837102370     -0.52217237768002      3.59810938085449
  C          -0.49165202348729      0.34196287134491     -2.35597104959426
  H          -0.62671259458916     -0.73835390623056     -2.49874206066872
  H          -0.75041111182445      0.84328135027775     -3.29153208933821
  C           2.90973828728438     -0.05800197853065      0.98785577053870
  H           2.49570352101862     -1.34905668607894      0.95741508653380
  H           3.96503864201385     -0.01048820866771      1.24452342305678
  C          -1.44055177593646      0.22366990336667      2.15595205969766
  O          -2.24737133248015      0.11679586208828      2.98039644798045
  H          -0.08393720906612      1.87298584425900      0.98250648763084
  C          -3.55737523103951     -0.30092664793616     -2.72581367550397
  C          -2.90866786571636     -1.49775987936316     -0.65158266333487
  C          -4.31147859041081      0.52457708645632     -0.46699947907818
  H          -2.79390258361506     -0.85410259981012     -3.26834961623246
  H          -4.48150607018765     -0.87654683010404     -2.77716899963913
  H          -3.72758044457202      0.64359357808095     -3.23035770912668
  H          -2.69184812894799     -1.40226478564568      0.41460578337017
  H          -3.78202577488035     -2.13877416413645     -0.76840305466520
  H          -2.06607264882421     -1.98168222621125     -1.14276979219633
  H          -3.97023512514794      0.77100497488997      0.53905679057764
  H          -4.68405328479655      1.42462626069074     -0.94796287217723
  H          -5.14328490133777     -0.17425211607373     -0.38239598969219
  C          -0.47286738559761      3.30742263035254     -1.53408882374499
  C          -2.70124372916643      2.96552000973890     -2.55957064191748
  C          -2.49638885874859      3.33130796042765     -0.09185198356704
  H          -0.02588750114886      2.99115236257617     -2.47415996891230
  H          -0.56459039462351      4.39253195672836     -1.55687646926617
  H           0.20046133151097      3.04591753199141     -0.71684454345283
  H          -3.73798260835492      2.67336156451324     -2.42065948907895
  H          -2.68685344739647      4.03816588211111     -2.75219178636171
  H          -2.30520776618096      2.46799362068189     -3.44267788629799
  H          -3.54770518747373      3.07739327376917     -0.00167284987202
  H          -1.98099877251594      3.00477070518824      0.81207846854533
  H          -2.41767562733295      4.41512745944785     -0.16154846541730
  C           2.95346016092215     -1.68596917896013      3.61514575872367
  C           0.99593578098266     -0.62611598840406      4.54573004851232
  H           3.28520477470671     -1.84315992733060      4.64478981424263
  H           2.45925408818904     -2.59231673662339      3.25576036945987
  H           3.82774036865231     -1.50802762358263      2.99555516862782
  H           1.38847215027512     -0.61846454205173      5.56681607504711
  H           0.32509519352940      0.22690459178298      4.41889882152440
  H           0.41298965128503     -1.54515063628980      4.40995503388356
  C           3.42214094762559      2.10660951675762      3.34989525368163
  C           1.13602197577492      2.82811312359385      3.36905105121215
  H           4.11813865933582      1.40255187852962      2.89945417755602
  H           3.78683071006590      3.12198582693442      3.17554238126620
  H           3.40033037661320      1.92688072539643      4.43139296939124
  H           1.36988484964611      3.86869824597756      3.12728263634563
  H           0.14492806400784      2.59028127987967      2.98009878713721
  H           1.12913351812349      2.72239989300884      4.46051364651471
  C           0.61800867137186     -2.49311890399719      0.59005311261753
  O           1.88430627713276     -2.48465670753752      1.02231398467707
  C           0.51260017485149     -2.92596026053708     -0.86812964669696
  C          -0.51451445852531     -3.72705068091635     -1.35757923497144
  C          -0.56133042965148     -4.07384378668537     -2.69791690799009
  C           0.41818824377582     -3.63565535779269     -3.57190828672071
  C           1.47097586674701     -2.87924761328047     -3.08607260808417
  C           1.52071802313015     -2.53974065393715     -1.74713459712086
  C          -0.27460620059111     -3.31277247491486      1.53537916766614
  H          -1.27992810466570     -4.10479474257508     -0.69763720193482
  H          -1.36991440530707     -4.69368184014579     -3.05901163224812
  H           0.37229279082802     -3.90001647262005     -4.61843948880402
  H           2.26047539486494     -2.55494750477720     -3.74892911453095
  H           2.36588048743620     -1.98486197323633     -1.36864982466810
  H          -0.10125191719014     -2.96932316382919      2.55343618038506
  H           0.01411189316141     -4.36071132611403      1.47205460159477
  H          -1.33173030525580     -3.20556042646871      1.30854691114218
