17
Coordinates from ORCA-job NEB E -33.770147868680
  C           1.03667841340534      0.35858793946536      0.35935506012872
  C           0.20209510135931      0.08744236122549      1.44386622702998
  C           0.81764374410448      1.66502886723373     -0.37084490941014
  H           2.08754488407283      0.10834666857750      0.46618995963040
  Br          0.84357230144732     -1.26604451440068      2.69910718236371
  C           0.31556016327529     -0.98785471112348     -0.87309805536093
  C          -1.04674059682585     -0.69392710400049     -0.88307347002218
  C          -1.75838468754057     -0.82232105443275      0.34122710201616
  O          -1.05703449854038      0.23515717612355      1.38390099911993
  Cl          1.21297956302544     -0.80402359729780     -2.34993522357897
  H           0.66882984025034     -1.85116637990836     -0.31723723878393
  H          -1.42652910516360     -0.02572838430848     -1.64085188475389
  H          -1.61160918680577     -1.74554288649884      0.89713242360546
  H          -2.78945649093345     -0.49267437695770      0.33922696470737
  F           1.58811619005936      2.63506881200767      0.21994572974807
  H          -0.22326720281248      1.99495203134985     -0.30037849432891
  H           1.14000156762237      1.60469915294543     -1.41453237211086
