17
Coordinates from ORCA-job NEB_product E -33.814693100920
  C           1.76902810537233     -1.16154556383879     -1.27553215393304
  C           1.06860660223920     -1.05712074602791      0.05052755256342
  C           1.60761394915117      0.14465200869674     -2.05782615125053
  H           2.83825958199235     -1.33222229040865     -1.10661203239376
  Br          1.66802872874764     -2.44747049069742      1.29759489001961
  C           1.18801389961373     -2.38712518125757     -2.01060766971015
  C          -0.27844989388961     -2.26994009947426     -2.26658093083754
  C          -1.16587174780639     -3.10241418403168     -1.75366290950242
  O           0.22533679241596     -0.30935234572260      0.39234209103771
  Cl          2.04704179596401     -2.59119567214955     -3.57948288819905
  H           1.40691046278564     -3.29116317837356     -1.43478957619402
  H          -0.57905982817447     -1.46175293590159     -2.91707703354818
  H          -0.87737621314302     -3.91892632740201     -1.11187455934009
  H          -2.21790402023022     -2.99599471153008     -1.95057014589213
  F           2.46495533281098      1.08123823067207     -1.54646967584868
  H           0.59657420965241      0.55255047378659     -1.96502324223911
  H           1.87889224249829      0.00128301366025     -3.10775556473205
