17
Coordinates from ORCA-job NEB_reactant E -33.794411518140
  C           1.76957047354171     -0.01626210858121     -0.04606773472677
  C           0.90108746905579     -1.01511961852078     -0.14832609808052
  C           2.27613632193223      0.73433818426719     -1.23509557858862
  H           2.14934305601927      0.28453800298785      0.91620515662535
  Br          0.32892361511110     -1.91426543988535      1.45632621804553
  C           0.07303387286313     -3.75053699380044     -3.76031389506401
  C          -0.47284379086335     -2.89531521844442     -2.91203117713420
  C          -0.01418024201634     -2.74862309808122     -1.49749704749514
  O           0.31170825424895     -1.37466515126351     -1.29073984383995
  Cl         -0.46887844139920     -3.92948222135492     -5.37495481278965
  H           0.88368833006240     -4.41367366078225     -3.49689885518604
  H          -1.27651189472309     -2.24051419334938     -3.21252619018052
  H           0.85933762975686     -3.38103968223997     -1.30008981359876
  H          -0.82458159957314     -3.03467183683761     -0.81138010831092
  F           3.64011931081470      0.88316361202085     -1.15444909421563
  H           1.85782280328181      1.74807441636923     -1.27113521963728
  H           2.05702483188715      0.20495500749593     -2.16712590582287
