21
Coordinates from ORCA-job P E -28.740989298340
  C          -1.24485197538698      0.48881558778632     -2.34032354326647
  C          -0.57586477123900     -1.71989590773135     -0.46582697790657
  C          -1.36904698964420     -1.90841126892037     -1.72041006699609
  C          -1.67967104227217     -0.93000266187456     -2.55261531207146
  C          -0.89577245606321      0.72417983405544     -0.87013741855823
  C           0.09058809816889     -0.34240680392520     -0.39260985557775
  H          -1.69832065705131     -2.91977026817973     -1.91604971436755
  H          -2.24875364572100     -1.12886217735917     -3.45024228135870
  C          -2.32525836489114      1.45683233208994     -2.81312754254520
  H          -1.23934340494092     -1.84890485207319      0.39556004292658
  H          -0.34366704262360      0.66685395461899     -2.93955414036936
  H           0.18784403117024     -2.49952994583330     -0.40228361618267
  H          -1.80121096173381      0.66733064900652     -0.26243240037298
  H           0.34636968601019     -0.13559789239902      0.66593718238141
  H          -0.46490067212318      1.71987923375918     -0.74960804651205
  N           1.26552133733310     -0.32475139190545     -1.25199494002322
  F          -1.87378360548018      2.75513195664777     -2.75249078482844
  H          -3.21652798172345      1.40576698059974     -2.17827476979838
  H          -2.59923093057841      1.27183438512864     -3.85717494276276
  H           1.70467750026468      0.58921640865393     -1.22778406865708
  H           1.94646384852548     -1.00793815214512     -0.94002680315304
