21
Coordinates from ORCA-job R E -28.654995898310
  C          -1.23812522237793     -0.08589970483435     -2.80781436295780
  C           0.06828932981387     -2.73425752333748     -2.14365013984666
  C          -1.14058818180125     -2.33519873337068     -1.76045991558216
  C          -1.77677905964788     -1.07378873049860     -2.09539631133048
  C          -0.81791734960513      1.92308862721702      0.23266959454680
  C          -0.46854721770773      0.64426346619161      0.30868268799862
  H          -1.72992050931050     -2.99070089832248     -1.13198062017343
  H          -2.77735021467739     -0.93967593457556     -1.70374110750931
  C          -1.91884143022696      1.21752083964428     -3.05298006979831
  H           0.46273547738936     -3.69007368303618     -1.84460319764602
  H          -0.24632043354504     -0.15914033145450     -3.22818706866311
  H           0.70043688461518     -2.13760247413196     -2.77899984083038
  H          -1.76451788265970      2.26749994547369      0.60453435624748
  H          -1.13898622912622     -0.09007877244663      0.73343204417572
  H          -0.15517253834214      2.66734509100492     -0.17614386807848
  N           0.76726597638862      0.13618679111783     -0.03554271300552
  F          -1.36960382574860      1.85606744067950     -4.14026566459615
  H          -1.78100318276487      1.88806194612525     -2.19210056256087
  H          -2.98826360436956      1.09848295172894     -3.25683762384013
  H           1.33598152227151      0.75690883253498     -0.59230764867250
  H           0.77758769143238     -0.82049914570961     -0.35529796787733
