21
Coordinates from ORCA-job NEB_reactant E -54.980562576900
  C           1.93274967070878     -0.15915516458309     -0.25162345211103
  C           1.49332922553801     -1.41756191249440     -0.14210259805177
  C           1.72658679378965      0.82784257177326     -1.35256935129590
  H           2.50664340088649      0.25264756448102      0.56393051345796
  C           1.83528352242243     -2.18779824229238      1.13839126389364
  C           1.71227702819631     -1.81371662801874     -4.39912228682655
  C           1.57851717261353     -2.31687340638863     -3.17476677719195
  C           0.43898788928011     -1.98893796387802     -2.26042455430172
  O           0.76968108097064     -2.23804044498690     -0.89663242916872
  C           2.77284530995399     -2.18283462150201     -5.25051462906579
  H           1.01429468387893     -1.09453973362159     -4.80660822213379
  H           2.29159410288752     -3.03229345731548     -2.78740711303531
  H          -0.38445424994473     -2.68978383307663     -2.44671197353860
  H           0.06182781435236     -0.97619150774636     -2.41506020229347
  F           2.29112923957609      1.99601940280719     -1.04500372552356
  F           2.24994058703755      0.45198997611111     -2.53459581389013
  F           0.42572023124657      1.09074051708011     -1.59987157053385
  F           0.73147608042213     -2.61527619337739      1.75343579629346
  F           2.57460461047366     -3.26459831466277      0.85529622540612
  F           2.52221677234336     -1.46397293804926      2.02309668191027
  N           3.62574903336659     -2.47956567025901     -5.95573578199933
