19
Coordinates from ORCA-job P E -33.775780927990
  C          -1.25904133589451      0.47792067484426     -2.40100066299870
  C          -0.37896834640089     -1.65333791161376     -0.51742697356236
  C          -1.33425871876010     -1.88590055502049     -1.64707585662072
  C          -1.73105729449199     -0.94563166387566     -2.48664057895480
  C          -0.72548648045294      0.79916769246995     -1.00278596468536
  C           0.26938354881648     -0.27298462664109     -0.57311609768148
  H          -1.69435860377975     -2.89906362515198     -1.75090433667067
  H          -2.40326901315731     -1.17249069092202     -3.30076044189772
  C          -2.39625706264010      1.43001978129343     -2.76114295519295
  H          -0.90586015092345     -1.76395149959955      0.43446524765383
  H          -0.45948959107854      0.63418546320815     -3.13706544829284
  H           0.40744057235198     -2.41171811796958     -0.54557017666994
  H          -1.54600138158845      0.81470419072401     -0.28305011659647
  H           0.72537561985901     -0.01805873464106      0.39245312068710
  H          -0.24190807846794      1.77695509273223     -1.00392471097379
  F           1.31770382334395     -0.29913033183414     -1.47557527599464
  F          -1.98841237487707      2.72195562625435     -2.69561508906967
  F          -2.81197416200029      1.23412094719943     -4.03538317381343
  H          -3.27399096985809      1.32497828854350     -2.10331050866538
