19
Coordinates from ORCA-job R E -33.675110197530
  C          -1.39485608049580     -0.01224622655584     -2.89807903877260
  C          -0.09754221745687     -2.48444331736118     -1.73819031237991
  C          -1.38210888075832     -2.15591454169278     -1.64308236186431
  C          -2.00670578835514     -0.97394126780100     -2.20853804227910
  C          -0.69188529598491      1.66318064528868      0.29771534961584
  C           0.10329525569397      0.61718047372077      0.30663431265080
  H          -2.05598073485453     -2.80931769874470     -1.10372939722227
  H          -3.07402119898577     -0.89166874236277     -2.03975896118115
  C          -2.12453369461905      1.16903585659138     -3.44158787434810
  H           0.28280636735944     -3.38470105342655     -1.28700550298197
  H          -0.33505540161001     -0.02006631482272     -3.09767323519921
  H           0.61826003615220     -1.87260527696816     -2.25752944650902
  H          -1.35781913620998      1.84638079818226      1.11856788510756
  H           0.17801641604765     -0.13202510485078      1.08150029671707
  H          -0.69919491669605      2.35666705642746     -0.52408812228346
  F           0.95232528158976      0.36245451256603     -0.70234295194100
  F          -1.63422965112522      2.33061311645036     -2.92332395441857
  F          -1.95575928544377      1.27436963311518     -4.78725911128193
  H          -3.20759107424762      1.15176745224437     -3.24154953142867
