19
Coordinates from ORCA-job TS E -33.660789721160
  C          -0.37215206942266      0.34014561599387     -0.95696285155078
  C           0.99897836223437     -1.80355233642306      0.34776688826665
  C          -0.33619897454629     -1.83670690611955      0.11427297618668
  C          -1.01390523384910     -0.78793987702663     -0.54328504372293
  C           0.35796663675202      1.06590108651682      1.06813108357262
  C           1.16230625075279      0.12455153163978      1.61001543651717
  H          -0.94377548779318     -2.58723689888672      0.60036396804200
  H          -2.09541744081478     -0.79921169800224     -0.52620492177114
  C          -1.14769927893428      1.47635277865880     -1.54828660340650
  H           1.46202281435700     -2.55642736480996      0.96475038432763
  H           0.66706732725283      0.32648746235159     -1.24331795269104
  H           1.67209817293123     -1.25335766250717     -0.28437511668783
  H          -0.65019818596858      1.15968074364344      1.42332797193882
  H           0.90756250078537     -0.52712127180727      2.42988078274972
  H           0.78635991173279      1.90137412752164      0.54506362689633
  F           2.49773770531247      0.20336312135385      1.42537196888268
  F          -0.47140150693928      2.64807380833913     -1.44640326809395
  F          -1.34034174028844      1.28413137586446     -2.88532802854329
  H          -2.14100976355429      1.62149236369921     -1.09478130091285
