25
Coordinates from ORCA-job NEB E -40.133241757130
  C           0.45164125058194      0.15058126371282     -0.42098722340936
  C          -0.81100868731077      0.65654635176957     -0.75122759732742
  C           0.72615615294666     -1.31631121126324     -0.63831830821903
  H           1.29469573548603      0.79239461390186     -0.66377640122179
  C          -0.92848100245485      2.14089938750285     -1.08892555771138
  C           0.34481882514142      0.33579395875537      1.58005378970264
  C          -0.81630563371857     -0.42454784069151      1.81287096141163
  C          -2.05104988994723      0.03036976674184      1.36772223852472
  O          -1.88198289901817      0.03780142770829     -0.44067911032036
  N           1.55322260883415     -0.07704457549123      2.10637241427068
  H           0.24575663997708      1.41470680180373      1.58840137206896
  H          -0.68951729175617     -1.47979198252554      2.01184466052061
  H          -2.27236480221217      1.08586672073218      1.43884440214431
  H          -2.90895900939875     -0.61525849776015      1.46988112221038
  C           1.16061047331808     -1.55138138602921     -2.08448344054326
  H          -0.18276288703378     -1.88307587956890     -0.43533346565664
  H           1.51895949217309     -1.66696449168543      0.02667881451287
  H           0.37131030137372     -1.24883434211850     -2.76777014996049
  H           1.37506159520518     -2.60536477261367     -2.24491898303513
  H           2.05488735172974     -0.97695345864711     -2.31730653525566
  F          -0.70274196620528      2.93357149837222      0.00372389184175
  F           0.00676462175437      2.51271342506922     -1.99839062143197
  H          -1.92206740845156      2.39501604350439     -1.48367454324030
  H           2.36556570421060      0.43527692023085      1.80067343869033
  H           1.69779072477524     -1.07600974141071      2.12872483143390
