25
Coordinates from ORCA-job NEB_product E -40.153314055690
  C           2.52887001556386      0.42413963883157      1.13970105283890
  C           1.32177034617132      1.16915937476919      0.64969453501353
  C           2.42982614683204     -1.03580348410705      0.68097123071134
  H           3.42570665241343      0.89056932414022      0.71877937391104
  C           1.40558269290155      2.71846269119879      0.67599743925893
  C           2.63293621779833      0.64965115111295      2.68682843951288
  C           1.69893688985710     -0.27190888984416      3.42594915529118
  C           0.50640735620288      0.08949032296921      3.85975100441584
  O           0.30183161338869      0.66573709756633      0.26191473567025
  N           4.02482474143222      0.55119329307467      3.08545841292046
  H           2.33615837445666      1.68290984098069      2.89416664239480
  H           2.07305482058433     -1.27164312585889      3.60705069075321
  H           0.12052677602612      1.08173619607360      3.69169267849239
  H          -0.13781495077223     -0.58950493117052      4.39195624360265
  C           3.68326347473058     -1.86390442564989      0.93243592694913
  H           2.23196969238133     -1.01954424692647     -0.39359029697727
  H           1.56607282242754     -1.50224010108215      1.15677455283188
  H           4.57208503233008     -1.32367027241587      0.61486040253231
  H           3.62728745810133     -2.79311071365530      0.36984767434751
  H           3.78956308046174     -2.12389773168051      1.98252595448143
  F           0.82388892986951      3.19099067267110      1.80755536129789
  F           2.67585983447510      3.17728978185251      0.67616991283516
  H           0.87315267647910      3.15633261392081     -0.18237694426534
  H           4.34645853964317     -0.40901941862208      3.06850166656530
  H           4.14898076624423      0.91178534185127      4.02358415461458
