25
Coordinates from ORCA-job R E -39.457152695600
  C          -1.48943722586671     -0.21314453313456     -3.02297494454722
  C          -0.67540310391385     -2.72770546538590     -1.53398485993342
  C          -1.88047478344294     -2.16489580710392     -1.53656047176430
  C          -2.26348355023720     -0.94215472174450     -2.22078276705194
  C          -0.81163624930453      1.27555709457250      0.37062345677767
  C           0.15216004598195      0.45761734347470     -0.00868631302327
  H          -2.67546694148206     -2.63820823725260     -0.97295575372155
  H          -3.28407108808750     -0.62040616813987     -2.05088271091787
  C          -1.91786372002851      1.04765718245242     -3.69504703332665
  H          -0.48198404380267     -3.63779899844231     -0.99215079393446
  H          -0.46947963044371     -0.51064793320523     -3.21967126714547
  H           0.15898184719074     -2.31304946116384     -2.07351923576781
  H          -1.80119744110272      0.89981940823977      0.55936907025994
  H          -0.02599345936468     -0.60136867322009     -0.13766482663510
  H          -0.65451050511605      2.33212285470486      0.50528520313841
  C           1.55666018334999      0.85556320475850     -0.29162158076911
  C          -1.01087526592360      2.21478167548697     -3.30368822729938
  H          -2.95265175611986      1.27994673884439     -3.43502580630138
  H          -1.86384500024456      0.90899250241681     -4.77930611902246
  H          -1.06502154958052      2.39022905817328     -2.23165423529002
  H          -1.31400947538870      3.12172918948067     -3.82131251033133
  H           0.02263044646263      1.99791216033957     -3.56257093863357
  Cl          1.82292262617789      2.60448791288117     -0.29498691555161
  Cl          2.62775894807128      0.12658940163461      0.94962103262732
  Cl          2.05328069221589      0.21855427133256     -1.87961145183539
