25
Coordinates from ORCA-job TS E -39.443782628160
  C          -0.72251008504167      0.01625041770627     -0.90434074894436
  C           0.61954237539919     -2.29934094730513      0.20259326131265
  C          -0.71181511165920     -2.26040077208555     -0.02528343986718
  C          -1.36699660228583     -1.14566795953019     -0.59635903998883
  C          -0.17191465974620      0.52210094736161      1.18092189155080
  C           0.69084866456298     -0.39066823485617      1.70482096110808
  H          -1.33931621170006     -3.04164497687775      0.38288894724279
  H          -2.44959229746822     -1.15787304293030     -0.60809121170049
  C          -1.46493305169058      1.20917214346451     -1.43796253529598
  H           1.05579383197332     -3.12215967084755      0.74311511865453
  H           0.33355458451226     -0.00239692287834     -1.12247659317944
  H           1.30822735104946     -1.68019985551615     -0.33988458461232
  H          -1.20061446582342      0.51113476356795      1.49018743245660
  H           0.35971793128898     -1.14203796933946      2.40149930323007
  H           0.20372852998751      1.44429799183010      0.77716762514146
  C           2.15516235005712     -0.15053608578360      1.69907207077163
  C          -0.54114719144275      2.34401249280201     -1.86374917189526
  H          -2.17703166820987      1.57054555338578     -0.69132276714926
  H          -2.05259330642847      0.88979215092597     -2.30467289451022
  H           0.02843795279979      2.72657702893390     -1.02013587180637
  H          -1.11816381424139      3.16564462746797     -2.28165049423304
  H           0.16064152093998      1.99921131015687     -2.61970454387586
  Cl          2.75101005367850      0.51411056869461      0.16419984093630
  Cl          2.55348477173363      1.07969785173699      2.97747010523755
  Cl          3.09647854775497     -1.59962141008435      2.09169733941614
