23
Coordinates from ORCA-job NEB E -60.084001908920
  C           0.52056552466276     -0.25160421750237      0.62140433290434
  C          -0.87659214737785     -0.37276069588981      1.07714529658702
  C           1.17828674863204      0.97091143869101      1.27271521414542
  H           1.13684481832099     -1.11928674344206      0.87171103316710
  C          -1.42484257748595     -1.64499254213880      1.48219584358141
  C           0.45553498889992     -0.10534702294632     -0.99838920865146
  C          -0.45364345429554      0.98765754129360     -1.31619379376202
  C          -1.77213242376090      0.90977313965240     -0.80271879106979
  O          -1.70711448006621      0.56265478186965      0.75438215500031
  C           1.84277625608764      0.04574933973368     -1.62726598035350
  H           0.06334660495940     -1.08470457943507     -1.30266431819162
  H          -0.04402729463835      1.93603553766908     -1.62418467481473
  H          -2.35307705600358      0.03899698494657     -1.11550162057642
  H          -2.35405533785911      1.82388373275500     -0.84355305398211
  F           2.50025799923970      0.97934130484770      1.13104276451276
  F           0.71371854732943      2.13686818600332      0.82323302310464
  F           0.94345985135196      0.94792989421670      2.59582646835635
  Br         -0.30399185734548     -2.79318862011951      2.50181537251788
  Br         -3.17019362179759     -1.50318273177679      2.22166536373000
  Br         -1.76710506008401     -2.77531011862322     -0.48085226552216
  F           2.34364434892672      1.28653223524828     -1.46293910624433
  F           2.71787130219505     -0.81773150132050     -1.06915569691925
  H           1.81046832010896     -0.15822534373256     -2.70971835751983
