18
Coordinates from ORCA-job NEB E -30.211719858270
  C          -0.26332560010398     -0.78767493121072     -1.50926944448617
  C          -1.35625022061199      0.01335308721525     -1.30234566707672
  H          -0.41421022097130     -1.85057528443967     -1.46495068739560
  H           0.52343626743009     -0.44273085928973     -2.15910672043761
  F          -1.19675136425436      1.33302801272031     -1.70100196984264
  C           0.59586419217058     -0.69671268542494      0.46023001279821
  C          -0.37553832599443     -0.00832874179500      1.18249589706959
  C          -1.68209177697283     -0.48986433678788      1.19449761894387
  O          -2.28694757877626     -0.19020952136884     -0.49825717546539
  O           1.84831089022539     -0.26264964863091      0.23505896765432
  H           0.59360880116891     -1.77969393535392      0.49132530247775
  H          -0.23531869046431      1.04950304484607      1.35666409792970
  H          -2.43983865904030      0.06732931726788      1.72168402186265
  H          -1.84220414416057     -1.55806362626361      1.16480332622413
  C           2.07481638656898      1.13492668872646      0.21633778709177
  H           3.06289233975500      1.27212952300998     -0.21919284843538
  H           2.06506193751917      1.54987603737190      1.22789154448206
  H           1.32848576651220      1.64635785940737     -0.39686406339455
