18
Coordinates from ORCA-job NEB_reactant E -30.244878197550
  C           2.39304240772543      0.21122857343137      0.33999907631075
  C           1.49072567544594      0.98696832496449      0.91356643912070
  H           3.11401945274312     -0.34180939867922      0.90582261202031
  H           2.41986263574621      0.13578199428836     -0.72928530540876
  F           0.61650320018308      1.67854076426529      0.15907990126712
  C           4.48738503489295      0.35010407847075      3.26024167297342
  C           3.41959217628158      1.13935803845976      3.24082133335840
  C           2.01764056931097      0.61262789405227      3.19214829311990
  O           1.22559657679310      1.25003343626339      2.20084970637463
  O           5.78867053249066      0.69586639628062      3.31990312423159
  H           4.39639714972769     -0.72911275498594      3.24983821268535
  H           3.49831488016035      2.21483025838005      3.25546347486920
  H           1.49215976854312      0.84432254419993      4.12475571232060
  H           2.01266497541777     -0.47343003844534      3.04047244872485
  C           6.09998064516639      2.07088628097116      3.33797878575507
  H           7.18574081364410      2.13253408983662      3.37667377829372
  H           5.67285776976957      2.56028169657330      4.21840520285493
  H           5.73594573595796      2.56948782167311      2.43476553112821
