17
Coordinates from ORCA-job NEB_product E -39.280744600490
  C           1.84756928175584      0.38430492608258     -2.60301088787460
  C           0.38379768556991      0.09753901675398     -2.74655074742855
  I           2.06482227388990      0.45171067032605     -0.43901676977716
  H           2.47452943809590     -0.44828122691254     -2.92515419475602
  I          -0.06439958602197     -2.01483347763508     -2.73436776406952
  C           2.25023558876903      1.70466280296851     -3.26721534356872
  C           3.44121797976871      2.34596940063473     -2.60821451234687
  C           3.47264511896533      3.61637451452397     -2.25152351185752
  O          -0.48444931461833      0.89933336966678     -2.79819750560140
  C           2.56198270332721      1.47606153816898     -4.74823792256263
  H           1.39444709348240      2.39262093419075     -3.21378502041880
  H           4.29564990641275      1.70061418573426     -2.45508231568967
  H           2.63349888063687      4.27620318045339     -2.40039280320502
  H           4.34410954077819      4.04449059371029     -1.78944453513795
  Br          1.09020328946317      0.58318514984432     -5.69342419499592
  Br          2.87651574966323      3.18933977241697     -5.62987840604818
  Br          4.15892437006185      0.37230464907206     -4.98990356466145
