19
Coordinates from ORCA-job NEB_reactant E -28.686479835170
  C           1.79730860447824     -0.10271982421118      0.02433350584010
  C           1.41131516351119     -0.34825928196079      1.28180226381524
  I           2.59496222649438     -1.43105697155143     -1.40094198862729
  H           1.65065587765076      0.88128245175086     -0.38061082816125
  N           0.84978112529280      0.67493232242774      2.03812885830911
  C           2.27187967703155     -2.84691102035570      4.31588413816228
  C           2.88894477883866     -3.05570661160971      3.16647060452774
  C           2.57756607253581     -2.37175026522738      1.86874093416836
  O           1.49437252728668     -1.47260305959338      2.03022530585607
  C           2.60336568714553     -3.54509990778117      5.59080266767519
  H           1.46573836271626     -2.12876486702879      4.36681668117078
  H           3.69610836650962     -3.77185976933775      3.08915624569094
  H           2.32643928007272     -3.13424547114832      1.11818645606578
  H           3.46956876739834     -1.83282946923192      1.52407868117470
  H           0.39302009574137      0.33592154768846      2.87122244141784
  H           0.31838568925618      1.36467547422169      1.53185979167881
  H           2.88291778266681     -2.81988457298911      6.35453360032471
  H           3.42393334676502     -4.24434717928463      5.45170538833661
  H           1.73383656860808     -4.08997352477751      5.95730525257428
