18
Coordinates from ORCA-job NEB_product E -34.493331924470
  C           3.41522297232029      0.69799941083866     -1.50031930445899
  C           1.91410415455403      0.43423342892218     -1.45369089712879
  F           3.96207406335047      0.37747481448123     -0.29089576172040
  H           3.87485583684827      0.03618948681065     -2.24765273092282
  O           1.38838291838294      0.53978117354183     -2.68169542214770
  C           3.66523720748426      2.17835181163431     -1.85794760770747
  C           3.11282678407032      3.06455593240963     -0.77579927897741
  C           2.15351554600900      3.94749820697034     -0.97069650676954
  O           1.27220390068891      0.17815094388593     -0.48055788309179
  C           5.15467113445476      2.46275954852004     -2.08940932608243
  H           3.15061285352095      2.36779905364712     -2.80550941762549
  H           3.56252441417504      2.92327616493977      0.19630260919566
  H           1.69805471328221      4.09194453192215     -1.93781682070266
  H           1.78226238633937      4.56367174159962     -0.17090608152901
  H           0.43054494235749      0.38197048989282     -2.65121516265846
  F           5.88637627752670      2.32743594322690     -0.94416909442071
  H           5.28695185195150      3.49665124770576     -2.42668850973513
  H           5.58067804268347      1.76935606905108     -2.82353280351684
