20
Coordinates from ORCA-job NEB E -41.065210970790
  C           0.88119814524178      0.21289537933585     -0.45023234836420
  C           0.07203886752466      1.03119951456236      0.37187394790180
  C           0.65235119954482      0.31508446478863     -1.94288684977099
  H           1.95108825217732      0.22775800655657     -0.25553740122619
  C           0.58859360929448      1.51590739587069      1.69226696781302
  C           0.26330115175912     -1.48051037502554      0.10205328631061
  C          -1.11640485260197     -1.44503079091776     -0.12308925624027
  C          -1.85303083286488     -0.42535461473474      0.55643533312529
  O          -1.21758523743321      0.99005345778039      0.17950367904134
  I           1.38573243215045     -3.02839843130021     -0.84264582701685
  H           0.61304935640792     -1.39704487122695      1.12537235156472
  H          -1.51809171072199     -1.84463577457286     -1.04056334940728
  H          -1.74282714091354     -0.40252390744423      1.64044863005609
  H          -2.88717184957949     -0.31864457493352      0.25020859335309
  F           1.54315824810210     -0.39906730647942     -2.64451843431016
  F          -0.55427472179203     -0.04230401362298     -2.37913574522776
  F           0.83048046122622      1.59307636775426     -2.33542684172860
  H           0.40454285838432      0.75882558317840      2.46131403187412
  H           0.05109137271212      2.41490036714817      1.98336421210673
  H           1.65276039138181      1.72381412328290      1.65119502014548
