20
Coordinates from ORCA-job NEB_product E -41.112097093640
  C           1.64434696443994     -1.84017947090717      0.78306765826050
  C           1.05426861155382     -0.71851504799871      1.67693548233111
  C           1.47341777029732     -1.41714676395538     -0.67463859799557
  H           2.72376713114599     -1.90124001855818      0.95720904615083
  C           1.99033149349793      0.42009113221253      1.94153448396340
  C           0.96341177489185     -3.17401164483815      1.11321931287701
  C          -0.35534162726156     -3.38858181267199      0.46078167212302
  C          -1.47183152109129     -3.55477532911706      1.14636399994536
  O          -0.05292465031028     -0.80237295244838      2.12703204783695
  I           2.29679121760633     -4.84173085142339      0.61900343063522
  H           0.85456187131935     -3.23462146048839      2.19743474439799
  H          -0.35962768929634     -3.42915258739204     -0.61935601598113
  H          -1.48901551152479     -3.52264667006743      2.22294304106643
  H          -2.41490661297920     -3.70636908266565      0.65227351254979
  F           1.72202002748877     -2.39910842088716     -1.54497948560825
  F           0.25037327855777     -0.95368120407504     -0.95378802937651
  F           2.32779196378304     -0.42421073276517     -0.98443357164632
  H           2.83513579822893      0.06168603710419      2.52838171286442
  H           1.47235745090674      1.19725375816858      2.49716030323578
  H           2.38007225874569      0.82871312277401      1.01225525236998
