20
Coordinates from ORCA-job NEB_reactant E -41.103593324030
  C           1.82271106587823      0.02766363742196      0.04240358400963
  C           1.21026701608276     -0.66240050679368      1.01544163072326
  C           2.01596223996907     -0.54607019258501     -1.31694057469498
  H           2.20625286624736      1.01855537746054      0.19315797208270
  C           1.01204963079876     -0.08965964053461      2.38205189198481
  C          -0.08025501236143     -5.14254751883294      1.56042906887022
  C          -0.30627818500447     -3.95832960875435      1.02771049248001
  C           0.08926609577292     -2.67427225801624      1.69204285713478
  O           0.77441565726867     -1.90301906711422      0.72416104871084
  I          -0.66907598479593     -6.93916880879301      0.65273191375750
  H           0.40214949528462     -5.28573228991185      2.51309263037055
  H          -0.77780550382078     -3.84271959808016      0.06342066035564
  H           0.72607654246051     -2.86892024800761      2.56446021068751
  H          -0.81849675427996     -2.14899143305592      2.02495300365472
  F           2.78240558612888     -1.65526202092277     -1.32800371416354
  F           0.86260396505431     -0.89647411893182     -1.92013906421386
  F           2.61623138029619      0.32874040768600     -2.14045130338858
  H           1.49836404355074     -0.71250058173903      3.13171076916615
  H          -0.04861549661123     -0.03198515501428      2.62365752882356
  H           1.43497135208076      0.90789362451899      2.42820939364908
