23
Coordinates from ORCA-job NEB E -60.947985066440
  C          -0.28882304722597      0.98079831967113     -0.40945433175745
  C           0.48353518624722      0.20839617806242     -1.50684466531630
  C           0.50509035143235      2.19360503371812      0.10136133393461
  H          -1.10696775276739      1.44304949320500     -0.97636381828169
  C           1.91593245288808     -0.32742166953269     -1.27353523178519
  C          -0.97400363167665     -0.12036029725154      0.48221078180435
  C          -0.29029764088280     -1.45663278015304      0.30082467943079
  C          -0.80329847177391     -2.43040003586115     -0.42847322676907
  O          -0.02141651205907      0.01492544474648     -2.57411534048435
  C          -1.23735547307298      0.08159377138318      1.98157829500207
  H          -1.97497873956946     -0.21651503987254      0.04619869094714
  H           0.63872558392497     -1.59365178666175      0.83175983893709
  H          -1.73653519320642     -2.32158655104795     -0.95617502109998
  H          -0.29383419340000     -3.37072136188461     -0.54129998376187
  Cl          1.61339034217337      2.67323324758095     -1.24631561645306
  Cl         -0.58605146453654      3.59503127430154      0.31635625616479
  Cl          1.46618470029404      2.01735377324546      1.55513709003731
  F           2.36662973824681     -0.19269938036590     -0.01485201819419
  F           1.94428085030568     -1.64973106778599     -1.55491802932071
  H           2.62405692594969      0.16941514716771     -1.95704219155064
  Cl         -1.86975422434063      1.68648235101569      2.36816841258985
  Cl         -2.51381453566921     -1.11035634622353      2.41413620609582
  Cl          0.13930474871884     -0.27380771745698      3.04165788983067
