23
Coordinates from ORCA-job NEB_product E -60.974716741190
  C           1.32254019246624     -1.77583514468177      1.19815870768457
  C           2.41310839374062     -1.38739485032191      2.20793051296382
  C           1.04233143688201     -0.53152232723515      0.34445304342383
  H           1.67747794733739     -2.56460472471410      0.52919855557520
  C           3.79132207957117     -2.08003372957750      2.04687957602864
  C           0.06422942686772     -2.25828091447454      1.96317597646941
  C          -1.15933644675458     -2.36990049342557      1.09360393110829
  C          -2.26330484350367     -1.68112320534493      1.31025559822564
  O           2.25750297640760     -0.55069310740446      3.04817609884280
  C           0.32183929689287     -3.62602927454458      2.60432446974861
  H          -0.13104493524652     -1.54700594606705      2.77388943746594
  H          -1.09612253009990     -3.08994644109499      0.29192339898375
  H          -2.34433340064510     -0.96627970566606      2.11175183832002
  H          -3.12855532211745     -1.79966332578249      0.68259385512078
  Cl          2.60033607789652      0.17845358527160     -0.18132965009499
  Cl          0.13747569739801     -0.95242965140251     -1.12289950956943
  Cl          0.14838509841047      0.70209860987951      1.23750439869021
  F           3.71115777088422     -3.20928674936973      1.31378937557615
  F           4.64567044630647     -1.25945192657658      1.39938563314410
  H           4.23003901561545     -2.31878104826349      3.02765920846172
  Cl          1.68231425153660     -3.54591525073060      3.75243675656919
  Cl         -1.12152174981778     -4.13420857853913      3.50596220209787
  Cl          0.69958911997164     -4.86666579993399      1.39047658516388
