20
Coordinates from ORCA-job NEB E -39.748432425550
  C           0.45790964234314      0.48683555210429     -1.12294556927908
  C          -0.37621794201672      0.76672721226580     -0.00801512025746
  N          -0.16390673900857     -0.12331795694072     -2.26667078433345
  H           1.15445411312555      1.26863495876831     -1.41009925228272
  O          -0.10100821226941      1.91348707277849      0.63818895362331
  C           1.46358951954608     -1.03108605271955     -0.40350602033483
  C           0.45188110341993     -1.93163254829801     -0.08573589141403
  C          -0.46081342390884     -1.54627142807288      0.92609029203030
  O          -1.18666321859448     -0.08251524979522      0.47727515166993
  I           2.89806379748850     -1.56883805398502     -1.87679523110265
  H           1.94532480388703     -0.47164773399193      0.38818554835336
  H           0.13755208249595     -2.66452351413253     -0.81152188140366
  H          -0.04307224634604     -1.19577994107969      1.86475267109104
  H          -1.33369811188812     -2.17206982516814      1.05215746122991
  O           0.18994498020826      0.28716544406512     -3.35144071935324
  O          -0.99115023521257     -0.98610102807129     -2.07471207373713
  C          -0.87055465879431      2.19945232378843      1.79769828442304
  H          -0.64134574034597      3.22973936877804      2.05708006577754
  H          -0.59425758313628      1.53598102521705      2.62010879853532
  H          -1.93603193099312      2.08576037448946      1.58990531676450
