20
Coordinates from ORCA-job NEB_product E -39.799777707830
  C           3.04337935757392     -0.66671148675460      0.73145825020346
  C           2.02887863382975     -0.26040029414658      1.81950296423112
  N           2.28762697937498     -0.68268837232085     -0.55977907744328
  H           3.78701739078376      0.13352043215903      0.64664296679256
  O           2.42666078154169      0.84739553818421      2.42216315171195
  C           3.68702048806441     -1.99242442767803      1.11300751910390
  C           2.73031415145972     -3.11353063957287      1.31264233156916
  C           2.70275633822898     -3.83707608026240      2.41747898338906
  O           1.04047432702005     -0.88471182710189      2.07632621865515
  I           5.17256314861375     -2.54147267194773     -0.40131088273235
  H           4.28015582412296     -1.83318538922175      2.01625820044214
  H           2.06666529522715     -3.32798910993742      0.48871269544929
  H           3.36756216044648     -3.64639948180280      3.24518962902901
  H           2.00549787471531     -4.64625233178877      2.53956209514411
  O           1.77235382972786      0.36439003211101     -0.85705521393459
  O           2.24370894333695     -1.70088867401107     -1.18968618599508
  C           1.56994655075723      1.35771603305503      3.44185748224713
  H           2.08275555306065      2.21810040098386      3.86239748111378
  H           1.39662835858193      0.59655210229623      4.20429106387278
  H           0.61283401353246      1.65325624775739      3.00994032715070
