20
Coordinates from ORCA-job NEB_reactant E -39.781588031660
  C           1.81624246648053     -0.16875077419223     -0.05273822817292
  C           1.82417143467037     -0.11904465683714      1.31374432446912
  N           1.52128517106293     -1.22525738155367     -0.91024709839853
  H           1.99859866951838      0.76457564696939     -0.56244932721064
  O           1.90054508135800      1.11697959524685      1.81611521540804
  C           4.55035975381316     -3.24898713696647      2.30556997150570
  C           3.70303342319405     -2.45439431334086      1.68023985304573
  C           2.24362275975261     -2.40299980627740      2.00969637132692
  O           1.80538761183280     -1.06323670504590      2.24403829608173
  I           6.59023820108527     -3.35657820288343      1.82548537555746
  H           4.25887227137002     -3.91915309293561      3.09670434909851
  H           4.03228614467358     -1.79927437387078      0.88534687585140
  H           2.02799066203704     -2.92079908233760      2.94617899794882
  H           1.66049943944262     -2.85447444009703      1.19463673904065
  O           1.79535498098357     -1.07458122361980     -2.08676925009687
  O           0.97388811068508     -2.23221955041395     -0.46907663558417
  C           2.01510263008192      1.27436746339411      3.22298013822158
  H           2.11763610468865      2.34488738909905      3.38272420521926
  H           2.89306947123569      0.75072002336106      3.60701426227782
  H           1.12321561203373      0.90222062230141      3.73040556441039
