18
Coordinates from ORCA-job NEB E -33.789523194570
  C          -0.50164142005688      0.77952446178709     -1.28728070246213
  C          -1.81682947411640      0.37844419244055     -1.07687912783130
  F           0.30191340253298     -0.06510761744575     -1.97300645569581
  H          -0.25744664811329      1.81133567791922     -1.51491140789216
  Br         -2.95633173138080      1.87719931615730     -0.48681417989896
  C           0.22566156273537      0.50083333680886      0.58782456782940
  C          -0.12937962508587     -0.84742547102793      0.74014516463972
  C          -1.47856879525025     -1.19166961223316      0.84800917407982
  O          -2.16457719583060     -0.77036038481429     -0.74872786924555
  O           1.48372567341748      0.97450134044430      0.52073380390456
  H          -0.40536398054700      1.25582168819708      1.05227984208123
  H           0.56691591096101     -1.60758578186735      0.41946335764933
  H          -2.13732275006661     -0.54396647976150      1.41350363472016
  H          -1.73849336529977     -2.23836122511025      0.88572485666567
  C           2.53805793535748      0.07907850793623      0.21146851047684
  H           3.42795774249554      0.69894777708921      0.12405947873445
  H           2.36438182417483     -0.44258888726465     -0.73144488095859
  H           2.67734093407278     -0.64862083925495      1.01585223320333
