18
Coordinates from ORCA-job NEB_product E -33.819721844220
  C           3.15001714881751      1.25677554822578      1.35517917392578
  C           1.69183197194810      1.09623848135456      1.05628405791014
  F           3.85280952756587      0.47286829970366      0.47486090269953
  H           3.47700197645749      2.29302924303521      1.20355704550001
  Br          0.64757044931252      2.49677088991129      1.94285169648962
  C           3.45259359341625      0.83398223376432      2.83486631980907
  C           3.17407684654903     -0.63699105569244      2.98776896580616
  C           2.29599432624880     -1.11459231391094      3.84830638460125
  O           1.14552074192716      0.26839289173417      0.42258188043190
  O           4.72961678268806      1.26034951978120      3.22838839784724
  H           2.77759812960479      1.41349019040768      3.47666756464847
  H           3.72239727074234     -1.28996245717428      2.32378789591468
  H           1.73757213298812     -0.47185598480156      4.50937678729496
  H           2.10220796542067     -2.17019374554640      3.92757013642267
  C           5.83796202774456      0.47962040915313      2.81914026343251
  H           6.71252783668348      1.04027925307728      3.14290468031925
  H           5.87519821066490      0.34776757469454      1.73570499470771
  H           5.83590306122037     -0.49906897771719      3.30770285223905
