23
Coordinates from ORCA-job NEB_product E -61.518335702240
  C           1.66487886488024     -1.16507843398943      1.97064315453815
  C           3.04010534362381     -1.04360514307295      2.65136649855714
  C           1.70011906410705     -2.05698041160805      0.72050318095762
  H           1.40282324898648     -0.15600464472883      1.62236372132247
  C           4.15573801791255     -0.38104998070646      1.81331088491130
  C           0.60181517306817     -1.52892423074698      3.04157657299888
  C          -0.79022549930458     -1.08781796362619      2.64525125335268
  C          -1.12821193693392      0.17790461488089      2.48895411942177
  O           3.23959572033919     -1.34686429808157      3.78629105076940
  C           0.54588794199746     -2.98533640756548      3.51471277681413
  H           0.90094080058051     -0.97454896428444      3.94243557924968
  H          -1.51931952589364     -1.87245095162612      2.51160893668806
  H          -0.42916735592468      0.98605666272390      2.63127540804250
  H          -2.12849999741413      0.45720626952213      2.21257659168251
  Cl          2.60024021127934     -3.56611069760065      1.02340427510253
  Cl          0.06530389730022     -2.43764906601279      0.14278057535653
  Cl          2.50289871994151     -1.20691720550504     -0.63586302968448
  F           3.68479061993658      0.73423006855532      1.20701858510977
  F           5.15044225422510      0.01021667037833      2.62700133443616
  H           4.57441686778649     -1.05274300543959      1.04734360956826
  F          -0.01268431475867     -3.83131072031859      2.63985148555265
  F           1.72899269079145     -3.50727751337057      3.84078231666395
  F          -0.21538080652651     -3.05004464777686      4.62041111858832
