19
Coordinates from ORCA-job P E -33.126495115560
  C          -1.29639416443050      0.66787463998931     -2.05307135156215
  C          -0.49535613653349     -1.75358186258204     -0.53035550766283
  C          -1.14069063986277     -1.78840237212838     -1.87963217655861
  C          -1.50253193460448     -0.71533929245878     -2.56377329124789
  C          -1.05766511392691      0.69862094886438     -0.55072705886582
  C          -0.02153809987882     -0.34883434845924     -0.13790091187941
  H          -1.30247423120360     -2.77234227856468     -2.29444894665178
  H          -1.94705095353787     -0.80348364518670     -3.54380582587683
  Br         -2.89466622472885      1.77403580622217     -2.45510376047087
  H          -1.21413568514952     -2.11364131495361      0.21228232265654
  H          -0.49443128401893      1.16460926019279     -2.60621611433199
  H           0.35127728591025     -2.44452037016214     -0.51647188606564
  H          -1.99402920425355      0.46406472641962     -0.03910197583230
  H           0.11480168304117     -0.30127380213920      0.94825263777581
  H          -0.74299475733850      1.69654758593880     -0.23609439245509
  C           1.35930281839639     -0.04756032562899     -0.72103678562327
  F           2.29582161512858     -0.82065290942506     -0.11501934030162
  F           1.45280992418185     -0.32837313996757     -2.04222432120907
  H           1.66155510280956      1.00352269402933     -0.58368131383719
