19
Coordinates from ORCA-job TS E -33.014064559710
  C          -0.98100394740396      0.63601361070267     -1.50312814946629
  C           0.35111720094355     -1.54244868528973     -0.23413544795328
  C          -0.97320755135710     -1.57425877764711     -0.52775178228827
  C          -1.63146814229453     -0.51346846075852     -1.18461672826925
  C          -0.39907541263440      1.25506975962420      0.62055439186029
  C           0.38489856014040      0.28924898024477      1.16425135805592
  H          -1.59762748188965     -2.34528190984423     -0.09835484198199
  H          -2.71035417348559     -0.54300998144731     -1.24547682562709
  Br         -1.93671041336790      2.11185125577837     -2.21001907060372
  H           0.79213972772377     -2.31893904218931      0.36878985308557
  H           0.07216247049319      0.69642456011336     -1.71433636512068
  H           1.04130641716507     -0.97229930450622     -0.82839287450018
  H          -1.43865017752549      1.32320500852688      0.88432181342517
  H           0.01213159539287     -0.39887057962046      1.90434808232078
  H           0.04494885674940      2.12396280798748      0.16574133892748
  C           1.88027632007412      0.44607070457654      1.15676394216491
  F           2.52046232227251     -0.71267909709740      1.44511340479757
  F           2.34272575316703      0.84583369813249     -0.05721565896549
  H           2.22592807583670      1.19357545271353      1.89354356013856
