22
Coordinates from ORCA-job NEB E -60.884865532190
  C           0.68426170724900      0.73768400193396     -0.12611638379656
  C          -0.34971527381839      1.25431328270671      0.67302793836262
  N           0.53821276248012      1.04900943053693     -1.55919822729461
  H           1.70806545180242      0.90434720166018      0.20158677734224
  C          -0.02093161422972      1.68674041349029      2.09069291605787
  C           0.28684941481254     -1.10813640149388     -0.12381457774036
  C          -1.00729727728877     -1.11634667300834     -0.65119393121325
  C          -2.03740737925783     -0.37535101867514      0.06006397768247
  O          -1.61566233690669      1.02724829319043      0.40286407731549
  C           1.36257771713062     -1.84541066339644     -0.89390134912615
  H           0.43118989083131     -1.25079188509251      0.94367113674723
  H          -1.17927489364987     -1.41084295125130     -1.67366664885846
  H          -2.26582549828805     -0.79191898634822      1.04479511463889
  H          -2.94672138568117     -0.24350937413523     -0.52117525148051
  O           1.49416599894414      1.56181313478237     -2.07668694287763
  O          -0.53098352349546      0.81868952668883     -2.06312891466350
  F          -0.99921555827991      2.37807121961783      2.66037375463945
  F           0.19466019932544      0.59865554434159      2.87286440124246
  F           1.09734339570567      2.41320670616762      2.14962188726422
  F           1.30111911586540     -1.63013931302430     -2.21035654878403
  F           2.58922845078272     -1.48809572966557     -0.49207811811327
  F           1.26536063596646     -3.16923575902582     -0.70824508734463
