19
Coordinates from ORCA-job NEB E -35.138064151430
  C           0.76066910769730     -0.07599791867554      0.57601612014749
  C          -0.26688879027860     -1.02375509464776      0.02022439687537
  C           0.20216580136114      0.38275254834937      1.83680333390865
  H           1.69700167797527     -0.60862751802452      0.78771844567942
  C          -0.63966080282940     -2.21689782679460      0.86072246108081
  C           1.03016831997418      1.15832792633198     -0.30856197576660
  C          -0.18533268028800      1.63283236514453     -1.04327175480352
  C          -1.38683630642833      0.84696477425445     -1.00129541753827
  O          -1.12562920931599     -0.65977658475483     -0.88974384227768
  C           2.00019204733078      0.78307909402348     -1.32328712757898
  H           1.48482892882803      1.95416453724448      0.30529864988612
  H          -0.02102019527942      2.30653294683684     -1.86528988428437
  H          -2.02518311054081      0.97796337079172     -1.87475073730017
  H          -1.98434353341750      0.97865062218407     -0.09401501609735
  N          -0.30906448307495      0.74641822114900      2.79191919501687
  F           0.45870274753000     -2.70217641919638      1.51527254169960
  H          -1.03604637043757     -3.01932263523961      0.22926273577888
  H          -1.38226549396667     -1.96041986547162      1.63403605005574
  N           2.72854234516056      0.49928745649494     -2.15705817448202
