19
Coordinates from ORCA-job NEB_reactant E -35.210947372710
  C           2.03184644760814      0.12149627616361     -0.36923697472719
  C           1.36154211474138     -0.43470851033022     -1.39103423176922
  C           2.27825055717294      1.47930160285133     -0.13377478191830
  H           2.42433328605119     -0.53601574202009      0.39460141556064
  C           1.15723948778443     -1.92882165908270     -1.47083695399514
  C           2.97289500680019      2.95856805606482     -2.97082510573558
  C           2.30285921415527      1.84046386202595     -3.23807588892556
  C           0.93869792599907      1.52831646691847     -2.70521356499585
  O           0.76779364776147      0.14110990842660     -2.45536602077714
  C           4.23633722787994      3.22135525214414     -3.53587824777191
  H           2.58829552758499      3.71611954489161     -2.30128800092043
  H           2.72036544155743      1.08940505300930     -3.89668945054724
  H           0.19232967853665      1.74819253910818     -3.47863765791855
  H           0.70814137987412      2.12162798087199     -1.81483613465331
  N           2.50229901669359      2.57831151237225      0.11618025429181
  F           1.59632310128752     -2.56687387712821     -0.34884271242675
  H           1.71066856112519     -2.34266837966250     -2.32239631563489
  H           0.09124051772717     -2.15436884818257     -1.58801142595192
  N           5.25634185965932      3.44348896155804     -4.00923820118347
