19
Coordinates from ORCA-job NEB_product E -35.204848120550
  C           2.79791791120502      0.36170249289548     -1.76118608741099
  C           1.62535558738523     -0.50169447037214     -2.26125123276301
  C           2.83049292496202      0.47990434594148     -0.32404934571459
  H           3.71779748766745     -0.15122297163338     -2.07935127096212
  C           1.19986690375832     -1.57378081513632     -1.27864771563377
  C           2.73947312492516      1.75933401809376     -2.43612051471254
  C           1.59484457515968      2.58023916073218     -1.89673325654449
  C           0.57109713741134      2.95905432826977     -2.63600881993024
  O           1.12907393449984     -0.33347554417995     -3.33471266659835
  C           3.98844324694256      2.45469631544641     -2.21570601281744
  H           2.60720666659168      1.60413903924347     -3.51422994285172
  H           1.66572618397963      2.83814436712418     -0.84840577885561
  H           0.49317261847539      2.70122253035190     -3.67944295529938
  H          -0.23624590905972      3.53798089967734     -2.22274124429929
  N           2.84914455449654      0.59378584309595      0.81260437069068
  F           0.29450991884690     -2.42137942581581     -1.83989316715671
  H           0.72510113321041     -1.10636012362396     -0.40598896146447
  H           2.05900760100194     -2.17045653264676     -0.94880986176671
  N           4.97591439854059      2.99796654253641     -2.03132553590927
