18
Coordinates from ORCA-job NEB_reactant E -40.309897196630
  C           1.58579682281680      0.10021549147245      0.04181351892421
  C           0.92748575231118     -0.98971742353514      0.46728116638341
  C           1.99634953171947      0.19403540000749     -1.36869606063343
  H           1.82848827439517      0.90547156920368      0.71342129919114
  Br          0.39350816125848     -1.11128674210256      2.29325628689127
  C           0.28859213006480     -5.12610463948928     -1.36214736065793
  C          -0.30864752659301     -3.95202046456507     -1.19397882826277
  C          -0.12210632234378     -3.11405622642925      0.02450992604959
  O           0.65415358750800     -1.97552260637341     -0.36236303830625
  O           0.18118279870048     -5.92057180071085     -2.43654678024256
  H           0.91688398245228     -5.57162943471460     -0.60306664492501
  H          -0.91976130616720     -3.52019796960461     -1.97403808619223
  H           0.41102941975466     -3.66866921151504      0.80460527034883
  H          -1.08670263919164     -2.76755257479113      0.41626949587493
  Br          2.87385145584455      1.88333269102635     -1.74071493445833
  Br          3.23970830746461     -1.26727616800713     -1.86945917277874
  Br          0.45629743752023      0.03282746299180     -2.59215760132178
  H          -0.35980986751511     -5.49867735286370     -3.11768845588435
