18
Coordinates from ORCA-job NEB_product E -40.307815462270
  C           1.80216743723890     -1.84824439934041     -0.55942020918050
  C           1.47450354214836     -1.23797917747019      0.77429673742264
  C           1.55577325060462     -0.84330931046912     -1.67477699198762
  H           2.87355240124603     -2.09786528925651     -0.57434271173723
  Br          2.25706176753403     -2.24746195212403      2.25780864970320
  C           1.09762570072086     -3.23234426951084     -0.72618358595286
  C          -0.35514049632007     -3.13526766885424     -1.09757847118861
  C          -1.33180214060709     -3.16271926523501     -0.20990847934536
  O           0.83877519166037     -0.27313943216834      1.00987047114341
  O           1.86501103101228     -3.92313041344252     -1.68011275363437
  H           1.18233212974651     -3.74204412084767      0.24917192327896
  H          -0.56044006756606     -3.07164160980740     -2.15799068742089
  H          -1.13946527230996     -3.23829305464343      0.84824220633504
  H          -2.36280902353131     -3.09520490277254     -0.50686711879761
  Br         -0.23337542190737     -0.08754271235919     -1.71641607551948
  Br          2.81116535632238      0.65470118963525     -1.43251254223394
  Br          1.90997302291941     -1.60057838477606     -3.42168611925137
  H           1.38899159108810     -4.70253522655777     -1.98529424163341
