18
Coordinates from ORCA-job NEB_product E -42.297733933960
  C           1.69704216073796     -1.76360815265605      0.38987032796544
  C           1.06902441241718     -0.71451313978799      1.35188076639343
  C           1.42198023506718     -1.37112850679873     -1.05918803564406
  H           2.78684464216171     -1.73459292481873      0.52604400834625
  O           1.43577903675178      0.54481587035628      1.15810616699171
  C           1.16601675446414     -3.15982109006023      0.74878898152340
  C          -0.15988157286702     -3.48519804974712      0.14507979341612
  C          -1.26539929671464     -3.55819824980332      0.86221365702993
  O           0.33263532396351     -1.03054161761089      2.23389133808506
  Br          2.49517425123679     -4.52569098016060      0.21498358591420
  H           1.11149713683021     -3.22478565854700      1.83824957541325
  H          -0.16661266126480     -3.67605757015289     -0.91931167849361
  H          -1.26608392154306     -3.37001523815954      1.92265182835269
  H          -2.21260931716724     -3.78711286525348      0.40710500113217
  F           1.72958921344862     -2.31706820187546     -1.94055962516026
  F           0.14905649456373     -1.02456961121123     -1.27668830134189
  F           2.16214468586777     -0.28716761726063     -1.39655604372179
  H           2.02250242204618      0.71705360354763      0.40713865379797
