25
Coordinates from ORCA-job P E -45.251357119880
  C          -1.32077961889125      0.34344698190823     -2.39366944826495
  C          -0.04626777635741     -1.71924324721135     -1.12432600893149
  C          -1.42628926405991     -1.95690146745088     -1.65365106941809
  C          -2.04650592559474     -0.96482216371657     -2.26971572278434
  C          -0.74798666212919      0.74366157872822     -1.02033136599965
  C          -0.01688104691418     -0.41322471743884     -0.30821958513643
  H          -1.86965810703929     -2.92956887028065     -1.51967625602571
  H          -3.04000465517785     -1.05285910340043     -2.67601437869112
  C          -2.22668226110644      1.44303037332137     -2.91670675610204
  H           0.27803023794279     -2.55628103571223     -0.50562410907612
  H          -0.49778737423571      0.23697566463903     -3.11138033288671
  H           0.64515293414889     -1.63209841044235     -1.96989797191871
  H          -1.57584039626985      1.08063191061639     -0.39483428083013
  H          -0.52249766187671     -0.61451063341626      0.64481620508944
  H          -0.08098243333904      1.59618204590030     -1.16793602112059
  C           1.40815534414187     -0.01781972096125      0.04423262572679
  O          -2.03946589547301      2.06092746177999     -3.92913084243481
  O          -3.27255810643702      1.63767008913226     -2.10747796016458
  C          -4.19417528897832      2.64384536877159     -2.50635197107597
  H          -4.97231060559269      2.66100433908400     -1.74790858825646
  H          -4.61492647760164      2.40511907982655     -3.48489345389743
  H          -3.69359512709134      3.61204029368626     -2.56660815853076
  Br          1.41563604275755      1.55682566222919      1.21663404638838
  Br          2.33336326124402     -1.44053137382024      1.01594140503440
  Br          2.46703686393050      0.41028989422767     -1.54005000069293
