15
Coordinates from ORCA-job NEB E -31.043319457520
  C           0.70950160631655      0.67179232571565      0.18822834214724
  C           0.00963841029524      0.42307261463324      1.48870109541439
  F           1.93180878984053      0.02601600064013      0.16755717152897
  H           0.93697703489328      1.72706112581152      0.00091119647069
  C           0.49428679175245      0.80915327933982      2.71306726966107
  C           0.34964180712177     -0.76202553908776     -1.89012840505074
  C          -0.28537764325723      0.08483201249350     -0.86344308904016
  C          -1.28072428330218     -0.71292432356596      0.01083545041484
  O          -1.11091207923625     -0.31091955638095      1.35345515712186
  Br          0.60774909492925     -0.12148097255903     -3.60790775951852
  H           0.92111923273942     -1.63085489342325     -1.61910640064151
  H          -0.79947384244697      0.92548892844856     -1.33608137409516
  H          -1.08984013218010     -1.79216809067173     -0.05371698517568
  H          -2.31795651595571     -0.52356800982325     -0.27277821511989
  N           0.92356172848997      1.18652509842951      3.72040654588259
