15
Coordinates from ORCA-job NEB_reactant E -31.090481326500
  C           1.37746121213466     -0.20631138124274      0.02348805229598
  C           1.32090718438273     -1.45753031800601      0.49977954736778
  F           0.81063520242658      0.20721698811696     -1.12388082413046
  H           1.90659211903229      0.58260656760721      0.53341893694133
  C           2.00187625313960     -1.67142603775486      1.73691681990294
  C           1.18757024412268     -3.64825102755950     -3.12905975240655
  C           1.02446128490454     -2.58374303509793     -2.36443488202528
  C           0.05544204771560     -2.55896890494799     -1.21863772875386
  O           0.71575208788921     -2.57506774491244      0.04000872314005
  Br          2.40523997422991     -3.69272914644371     -4.56871892237335
  H           0.63530100347261     -4.56713949726454     -3.00837024869515
  H           1.60862103352045     -1.69010533541609     -2.53060208636623
  H          -0.55045867986306     -3.46836123984670     -1.21074094039013
  H          -0.60478087626062     -1.68819372579722     -1.29994969206711
  N           2.54447990915282     -1.84159616143444      2.72928299756003
