15
Coordinates from ORCA-job NEB_product E -31.085426397050
  C           2.22280042366767     -1.26803429293555     -0.83540457630073
  C           1.91390836990724     -1.81024974222542      0.56652961151423
  F           3.54732106505116     -1.46060699441856     -1.10746225571548
  H           2.02865843608140     -0.18805219338898     -0.88947691473436
  C           0.75631625582430     -1.15568844011294      1.15603744669704
  C           1.36552468227351     -2.04883960275383     -1.83756230334393
  C          -0.07973111235856     -2.04768763654037     -1.47139062662961
  C          -0.77679366427396     -3.15162384295082     -1.27148051775448
  O           2.53491169579545     -2.67906237766193      1.10653291912567
  Br          1.57309833706815     -1.23157021644643     -3.63131503489073
  H           1.76423128715550     -3.06210112406784     -1.92944097614355
  H          -0.54301202908917     -1.07234807121736     -1.40699247532120
  H          -0.33289477109397     -4.13055978118924     -1.35134193447145
  H          -1.82042728173051     -3.11576343055148     -1.01467325956463
  N          -0.14211169427822     -0.62101225353928      1.62044089753322
