33
Coordinates from ORCA-job P E -45.625699074680
  C          -1.68601077897818      0.20938294101249     -1.94042743600390
  C          -0.12903947018225     -1.73177391775508     -0.66553063314475
  C          -1.60917489725706     -1.92607919344536     -0.77330272158396
  C          -2.35087928451950     -1.03559319442721     -1.41051684768165
  C          -0.80867558360752      0.75077595635810     -0.79641318304966
  C           0.27797734411887     -0.26128259734550     -0.40691089933444
  H          -2.02393565223672     -2.83354772533525     -0.36062955578158
  H          -3.41572558073849     -1.15500474153290     -1.53595773233028
  N          -2.56739984280786      1.23429013001162     -2.47204531733278
  H           0.28899010816759     -2.36979242545127      0.11336397409579
  H          -1.00072378951533     -0.06620159406194     -2.74774122024769
  H           0.31541708784668     -2.04868500944842     -1.61508037489067
  H          -1.43636032132696      0.93313694135298      0.07551523792870
  H           0.50422331148439     -0.13760904447583      0.65691488529860
  H          -0.35859248319555      1.69634316453969     -1.10121162835015
  C           1.58564735187182      0.04388782309319     -1.13506419701852
  C          -3.28935423128926      0.90443265188742     -3.70826474592671
  C          -3.39469245379239      2.18192406886260     -4.54922015025032
  C          -2.63373076275720     -0.17893068750726     -4.56259849054835
  C          -3.45438416784258      1.80192666302564     -1.47506694517841
  H          -4.31012382696421      0.55845945469570     -3.46277062824505
  H          -2.39786226549189      2.51551846181578     -4.82418512311263
  H          -3.88050259187549      2.98266355982327     -3.99932463059723
  H          -3.96652314624685      1.99207045043352     -5.45409220730862
  H          -1.62968788336016      0.11538023364329     -4.85774046556385
  H          -3.22605518926958     -0.31388732523345     -5.46509755723529
  H          -2.58907405303858     -1.13308048009129     -4.04392055723580
  H          -2.87811858196560      2.39773689126525     -0.76879547964135
  H          -4.01972127004768      1.04244638041328     -0.91504957865649
  H          -4.16835588599751      2.46417672031712     -1.95792587423222
  F           2.57405102702069     -0.79119505690009     -0.72072008372031
  F           1.48388904749611     -0.14417120486145     -2.47368031144350
  H           1.93890871629828      1.07479170532136     -0.97449952167691
