33
Coordinates from ORCA-job R E -45.551991137240
  C          -1.19711863505454     -0.43227004299792     -2.74011149337801
  C           0.37721463961626     -2.82116899438375     -1.78480678215116
  C          -0.93069643363178     -2.77877161505328     -2.04047565637096
  C          -1.71889018313754     -1.63623843020635     -2.43627992761354
  C          -1.80333442305207      0.74637796568044      0.49337690303958
  C          -0.58044236962112      0.31304089824397      0.25873516849164
  H          -1.49802320249366     -3.69663072584011     -1.93470516636516
  H          -2.78449263509468     -1.80767151282361     -2.47672138906053
  N          -1.84547539717040      0.73481843413892     -3.02120970334429
  H           0.85971885919987     -3.73954737275676     -1.49805920055546
  H          -0.12235244000640     -0.32526495420145     -2.73440055761120
  H           1.01702878129884     -1.95825884417536     -1.85689940058556
  H          -2.63757701511271      0.06897126963204      0.52971715097438
  H          -0.35718537553948     -0.73001567868441      0.09034920937239
  H          -2.01919092200066      1.78979784825973      0.65778653329474
  C           0.60164090465148      1.22824190275200      0.19755794426104
  C          -3.29096777577067      0.75875988279643     -3.15367353336903
  C          -3.87354044082432      2.12460180970822     -2.79224314363114
  C          -3.74218743923337      0.32933366312020     -4.55458503154767
  C          -1.09096231710963      1.81153421084785     -3.61444293550910
  H          -3.67280256106107      0.03634024710611     -2.42513565515166
  H          -3.65886928294412      2.86441682464938     -3.55900096607674
  H          -3.47340728687117      2.46856119873562     -1.84155887580504
  H          -4.95337679315888      2.03953961766036     -2.70006502929181
  H          -3.42856701480219      1.05743629997392     -5.29895173339713
  H          -4.82520567712130      0.24575953613288     -4.59115627113109
  H          -3.30784129444698     -0.63516774151080     -4.80602487267468
  H          -0.03284836973742      1.66458571027489     -3.41009732388802
  H          -1.38881496751640      2.76809899455854     -3.18410582644191
  H          -1.22780866896255      1.85976868116432     -4.70080551549203
  F           1.54199768963674      0.87400489783700      1.11192492937545
  F           1.22082006410297      1.14796180740822     -1.01190509866364
  H           0.34963798296897      2.28656421195272      0.36974325029733
