33
Coordinates from ORCA-job TS E -45.540359747210
  C           0.35701929702294     -0.37678387179424     -0.56309227175758
  C           2.04276592293099     -2.09947291644318      1.02724971525281
  C           0.87326422317689     -2.51816863975426      0.46081384543706
  C           0.03843599908557     -1.68793255495763     -0.30245837419154
  C           0.33519731846148      0.18375686839109      1.77138499285797
  C           1.27455022325306     -0.56718114184022      2.41116458303996
  H           0.46473935042474     -3.47465956659544      0.76054182604034
  H          -0.93256199353650     -2.07806396228147     -0.57036906017403
  N          -0.41948205714369      0.54035542184463     -1.19415444196668
  H           2.59319156690692     -2.77143934581427      1.66585970654745
  H           1.39051624420111     -0.07833610423677     -0.48462237952149
  H           2.63477856823510     -1.33049660448384      0.56484814799780
  H          -0.70126116851093     -0.09131404908433      1.80171468467715
  H           0.99062528416904     -1.36290559421419      3.08040789653049
  H           0.57849548945146      1.16088544866611      1.39629054173628
  C           2.60163346118463      0.05701308693249      2.74004345164221
  C          -1.86193494994379      0.40208387834808     -1.28567171584268
  C          -2.59745950620683      1.62047624659997     -0.72274517743868
  C          -2.28674136521587      0.12178419586685     -2.73011803265115
  C           0.15899446990293      1.81143374390646     -1.55239622033804
  H          -2.13695366012333     -0.45949643880519     -0.67141804095536
  H          -2.45727497803352      2.49663201550898     -1.35003354059758
  H          -2.24606520087869      1.84494956837699      0.28163937873639
  H          -3.66199252345879      1.40628763626735     -0.67282001379166
  H          -2.06991381435159      0.97290996934272     -3.37103972286718
  H          -3.35429493862025     -0.07657336397131     -2.77472560611594
  H          -1.75328310239404     -0.74442997376102     -3.11338952415445
  H           1.22446385522682      1.69029154053684     -1.73923213031369
  H           0.03148743423448      2.56151391604889     -0.76333843858103
  H          -0.30458393235516      2.18610265626348     -2.46450677085457
  F           3.53443707208542     -0.85353100613327      3.11524373811546
  F           3.13225265244833      0.72750769476328      1.68091362171863
  H           2.52695475837105      0.78680124650643      3.56801533178334
