21
Coordinates from ORCA-job NEB E -36.772377488160
  C          -1.04694922967321      0.42950647881801      1.44787179911527
  C          -2.31133789832099      0.42652303936269     -2.26992314239783
  C          -0.26761291776907      1.57146021296140      1.66132730849885
  H          -1.34653851121147     -0.09090154583305      2.36179556727011
  Br         -2.23024746328259      2.06471254623342     -1.27754317995078
  C          -0.12001564846951     -1.32738884612992     -0.43485706142713
  C           0.60451955706262     -0.45958337012435     -1.12758694511035
  C           0.12552418714642      0.29426051128637     -2.34878927072143
  O          -1.23953951257356     -0.07151026328189     -2.65551634260372
  O           0.23053440333782     -1.99069481910704      0.67747803420754
  H          -1.14141680991639     -1.58038513935796     -0.70687015935870
  H           1.61957265660674     -0.21587769678569     -0.85903613107533
  H           0.70004301783886      0.01353780916865     -3.23606229736522
  H           0.19677241051179      1.37600142577586     -2.19895872071296
  F           0.35290135974552      1.88972055964972      2.87282898609507
  H          -1.27371156463760      2.10488644457130      1.59008546904541
  H           0.36967274676876      1.95766853402752      0.87073293798726
  C           1.46208462299065     -1.65586788610096      1.28472629606933
  H           1.49126401016434     -2.19279518422842      2.23058240535775
  H           1.51495704284002     -0.58104249208982      1.45587351063419
  H           2.30952354084086     -1.96223031881585      0.66184093644266
