21
Coordinates from ORCA-job NEB_product E -36.987502730280
  C           2.80469052041027     -1.32479248410497     -0.25289730852590
  C           1.67805920412338     -1.37212424177080      0.71886615965276
  C           2.52434256197651     -0.18824282315214     -1.24100185225280
  H           3.74447417542608     -1.13238068307312      0.27413022737402
  Br          2.16230110518887     -2.29016997905555      2.38357870286273
  C           2.94467165010002     -2.77043719937615     -0.89672894454181
  C           2.43852208907299     -2.78445616531310     -2.31199928673522
  C           1.30994319487200     -3.37007964828678     -2.66515605471227
  O           0.57234513883980     -0.97219195287596      0.58679696904012
  O           4.24193154370176     -3.27080375979595     -0.72705739296197
  H           2.33535781700304     -3.46336196336217     -0.30217708226183
  H           3.05722370091420     -2.28373574618125     -3.04220297675520
  H           0.67932919415301     -3.87257488896080     -1.94993135150708
  H           0.96867771861606     -3.36942323474371     -3.68610571947529
  F           3.59455226727286      0.01143012463756     -2.07098947821873
  H           2.36509800894508      0.75166477964730     -0.70185508362145
  H           1.65640168531256     -0.40689867530579     -1.86958855799079
  C           5.26629386908179     -2.73680528429042     -1.54238697073548
  H           6.19811668209804     -3.07804880764497     -1.09499194131888
  H           5.25600560956321     -1.64475822240727     -1.56323589468358
  H           5.20246226332848     -3.11840914458396     -2.56566616263135
