14
Coordinates from ORCA-job NEB_reactant E -29.977703586820
  C           1.62138012163608      0.69180507275425     -0.09389930390931
  C           2.35103461376610      1.03327621623972     -1.15339035375603
  Cl          2.32302611140938      0.02625762745092      1.32846407146964
  H           0.55019375884930      0.79578206395675     -0.05239733609385
  Br          4.22963483247514      0.83221364723890     -1.18478512344636
  C          -0.33149375065548      4.12245356074975     -2.51399422924478
  C           0.13801462769612      3.07458722607639     -1.85989366069252
  C           0.57722586992228      1.81903903456979     -2.55335880660037
  O           1.95101072079268      1.53811982591033     -2.33457797901935
  Br         -0.88964315503945      5.69803667381704     -1.64374677948579
  H          -0.45422467513963      4.15869262433619     -3.58516518004151
  H           0.25164994823419      3.09985386926710     -0.78568501810358
  H           0.49087742905965      1.93025157928878     -3.63699828562956
  H          -0.03608645300636      0.96703097834409     -2.23087201544663
