14
Coordinates from ORCA-job NEB_product E -29.996055103850
  C           1.40568119336354      2.15030625218738     -0.30559156051441
  C           2.09701671144545      0.98748696902324     -0.96672354790432
  Cl          2.70038601744782      3.12166945739479      0.47130661013554
  H           0.76353539757777      1.75984369239360      0.49101511306192
  Br          3.22780672838727      1.52071012227765     -2.45233936688071
  C           0.60715187974561      2.98283093419783     -1.29976909168073
  C          -0.34842500658060      2.12901603826573     -2.06527971407129
  C          -0.37212902740172      2.07607767567242     -3.38448684995673
  O           2.03075959909862     -0.15093226411359     -0.66265317477177
  Br         -0.40090086519042      4.35251569426956     -0.29522745179710
  H           1.27077622683839      3.53977339399123     -1.96411715534665
  H          -1.04326524688860      1.55706468931742     -1.46509238306357
  H           0.31047404160362      2.64867591019474     -3.99073174625046
  H          -1.07416764944674      1.45176143492800     -3.90820968095971
