16
Coordinates from ORCA-job NEB_product E -31.606111070370
  C           2.09152324770877      1.18448799896772      0.64258004397390
  C           2.62042570434230      0.60617994797290     -0.65188909815729
  O           0.75279694252258      0.89348683488091      0.87946281398895
  H           2.66098990040932      0.74926370199888      1.47209394159541
  F           1.60144398114992      0.43510513151067     -1.54880262352470
  C           2.34362807294856      2.73291262822755      0.61362634925935
  C           1.71932636064636      3.34262148205880     -0.61531898378535
  C           0.52735373532541      3.90921594859959     -0.60989524196526
  O           3.72395443035627      0.34600170981242     -0.96343578658996
  C           3.75885856982226      3.01837122384088      0.66195315262056
  H           1.87300311802236      3.13829183286340      1.51784298476995
  H           2.29907670237878      3.25916370074942     -1.52498422311563
  H           0.09152605977332      4.31242186036767     -1.50712815521721
  H          -0.05804244633142      3.99923595095540      0.29142017884420
  H           0.21733652265434      1.15673435484049      0.11782178911251
  N           4.87119909827086      3.27390569235330      0.69465285819057
