22
Coordinates from ORCA-job P E -36.387319469140
  C          -1.33902465112731      0.28672765967153     -2.41074076975991
  C          -0.27742115878147     -1.70218788373754     -0.82397784648201
  C          -1.66892690467027     -1.86850069705546     -1.34981021845421
  C          -2.17149835852745     -0.92763412183292     -2.13180139678233
  C          -0.78960962978914      0.80247521394721     -1.06997112340295
  C          -0.06833988116787     -0.28485078764637     -0.24833432404786
  H          -2.21059240407142     -2.76386484091042     -1.09003752105842
  H          -3.16257812840746     -0.98679222267399     -2.55242862239440
  C          -2.12511047120358      1.37925807751769     -3.12591357428066
  H          -0.05728104759167     -2.44571565086662     -0.05943321869123
  H          -0.48827330016063     -0.00577980158233     -3.03837062752241
  H           0.42616675866975     -1.84821517787155     -1.64914936699942
  H          -1.63032517589376      1.18284163949072     -0.48809699229413
  H          -0.46218658246693     -0.27587058111591      0.77276090241161
  H          -0.11771483122434      1.63955389461263     -1.25867259045767
  C           1.42133556752744      0.02168245431231     -0.12477925030993
  H          -2.49560561843189      1.01432053739330     -4.08084810198984
  H          -1.49480355468423      2.24598631000750     -3.31095917033368
  H          -2.97445707966324      1.69430249019922     -2.52321202303758
  Cl          1.67459150214080      1.57172342335714      0.72254657148338
  Cl          2.26293612955449     -1.23395576733801      0.81612443880907
  Cl          2.20409881997022      0.13364583212187     -1.71439517440542
