22
Coordinates from ORCA-job TS E -36.280091283100
  C          -0.79344022707665      0.43734434549088     -1.14353991988973
  C           0.52489832670146     -1.93694775418736     -0.13640322825138
  C          -0.81212376292252     -1.85853349633958     -0.31494463474389
  C          -1.45667514428477     -0.71333782518590     -0.83548641460126
  C          -0.12657801363388      0.89894957591901      0.91432415077913
  C           0.70301524802895     -0.06485461949366      1.40078907813378
  H          -1.44557873492455     -2.63086389828822      0.10092616238045
  H          -2.53839272328517     -0.69363506319233     -0.79716203268970
  C          -1.52085230983248      1.65629944425894     -1.61531155750855
  H           0.95744361634911     -2.78154863836403      0.37252554761830
  H           0.25010735942512      0.39683632730050     -1.41462056323253
  H           1.21015536386518     -1.32570258416039     -0.69193983635261
  H          -1.14312306080490      0.94407704548297      1.25793434962657
  H           0.35333358694807     -0.80916800349703      2.09603457658405
  H           0.28865554187718      1.80492973939009      0.51087188321843
  C           2.17685342760119      0.10648305347789      1.36349387409217
  H          -1.63228011850546      1.61373353596657     -2.69975139935582
  H          -0.96955144103814      2.56330623520171     -1.37961278376807
  H          -2.51314511520863      1.72065285759456     -1.17485672894050
  Cl          2.76801099455566      0.76505099352323     -0.17619277720209
  Cl          2.66112154287869      1.29710961861904      2.64840423956858
  Cl          3.05814564328652     -1.39018088951688      1.71451801453465
