20
Coordinates from ORCA-job NEB E -29.122273058970
  C           0.67763021423145      0.25032316698784     -0.41835288961478
  C          -0.30838022658718      1.10813117712496     -0.92967517250685
  C           0.38777160300530     -1.23451600920164     -0.38934762761660
  H           1.69999903076350      0.47839235439665     -0.70843313345224
  H          -0.01252785668469      2.08942058695868     -1.31514412735766
  C           0.57800363620883      0.80008507497742      1.39350452678024
  C          -0.75703064624768      0.56309606436279      1.74103309473194
  C          -1.74105739941896      1.30173014843874      1.02742725599377
  O          -1.54104267100316      0.95742868095718     -0.55295933274473
  Cl          1.81070651814751     -0.10861457831406      2.22966389633173
  H           0.90793625773310      1.82711947931811      1.27805704321053
  H          -1.01893264187531     -0.40875759567565      2.13104456577634
  H          -1.60904377715428      2.38046312368538      1.00489513351796
  H          -2.77115562723425      1.01779156093940      1.20455801185386
  C           0.78513121453943     -1.86093700275346     -1.72365964458919
  H          -0.67970718536396     -1.38326665697071     -0.22200463942105
  H           0.94337130181974     -1.72202065627501      0.41230627828049
  H           0.23402276514768     -1.39886074130795     -2.53946319465306
  H           0.56489172123732     -2.92553127040055     -1.71494183723855
  H           1.84941376873560     -1.73147690724812     -1.90850820728215
