20
Coordinates from ORCA-job NEB_product E -29.163387675520
  C           2.41315835550625      0.43309027839932      1.22156260394955
  C           1.31006313508371      1.36786481484659      0.78398522705100
  C           2.27906558657207     -0.89770774972519      0.46420895316165
  H           3.34900010615215      0.91072367393166      0.90063460741360
  H           1.19534238786323      1.40870856980658     -0.31726354129322
  C           2.42168025030582      0.33138907778144      2.75471999085222
  C           1.49230728703604     -0.69910359953397      3.30567666622285
  C           0.35604498209408     -0.39480481843647      3.90476914363990
  O           0.61296003036505      2.02618400149744      1.50082758891102
  Cl          4.08572513105341     -0.01008963592711      3.34845649107929
  H           2.16417829809296      1.31569615490750      3.15782620999095
  H           1.80899291105737     -1.72713295391105      3.19971614781053
  H           0.03382060745625      0.62668583553673      4.01831795399628
  H          -0.30258741558416     -1.15507683125032      4.28788302178479
  C           3.50789982472672     -1.78928133475303      0.59175476580764
  H           2.11993523715174     -0.66958005431993     -0.59308285751589
  H           1.39391513458346     -1.42552930129486      0.82386244513734
  H           4.39370904737126     -1.27171537008682      0.23077815959717
  H           3.37171192459948     -2.69185029120570      0.00033888078741
  H           3.68207717851309     -2.07877046626282      1.62322754161590
