23
Coordinates from ORCA-job NEB E -60.060649556620
  C           0.25405706759014     -0.19956409772084      0.98276139638821
  C          -1.07860892484331     -0.51249584608836      0.64768955912771
  C           0.53304118729436      0.79700055262936      2.07076076348877
  H           0.90382123657384     -1.06626435819872      1.11243258877412
  C          -1.34917881470555     -1.94374507135829      0.18294186585556
  C           0.82185466425287      0.65005045088945     -0.72063193045453
  C          -0.29195742622701      0.74835487226628     -1.55789144796034
  C          -1.46352817613539      1.35061351611268     -1.03134651319789
  O          -1.90189333965087      0.38445516798998      0.23341470160163
  C           1.93713470221516     -0.23022219959111     -1.23848645732569
  H           1.18393129638549      1.55648040872201     -0.24732190277427
  H          -0.41652829556631     -0.01333504403528     -2.31827188544483
  H          -2.35153914452095      1.31304124564589     -1.65086086743489
  H          -1.34800919887134      2.30246271172938     -0.52410143414944
  Br          0.16901556460339     -0.13175699154232      3.78166262787145
  Br          2.41079476843981      1.36194460424015      2.13434018228576
  Br         -0.55411850392599      2.39544073167649      2.05956916070164
  F          -0.57660115070143     -2.82963604709411      0.84581398975248
  F          -2.63151023392680     -2.28459490591868      0.40271904161378
  H          -1.14694431499619     -2.05602989144817     -0.90085336208032
  F           1.46638127242910     -1.42597678200924     -1.63691654645373
  F           2.54682537074781      0.31627255888063     -2.29652802666366
  F           2.88356039353919     -0.48249558577719     -0.33089550352153
