23
Coordinates from ORCA-job NEB_product E -60.111041492900
  C           2.73660192513035      0.08186021936015     -1.96662520765386
  C           1.39298152275398     -0.57542493072020     -2.30074113881257
  C           2.58511732664245      0.81437174371694     -0.63786369963942
  H           3.50063959157626     -0.69385800882512     -1.82227243113397
  C           1.38064888143607     -2.11800728743200     -2.33949315126177
  C           3.22159823124584      0.99886964267054     -3.11652087971705
  C           2.28330073265327      2.10212170167445     -3.52439124197917
  C           2.67365904334566      3.35864259577535     -3.63131001123551
  O           0.38701267503141      0.04607482746131     -2.47004227846864
  C           3.50409900345787      0.12268432524564     -4.34219193246167
  H           4.19177747495121      1.42880896448370     -2.83392558228763
  H           1.27445006342375      1.80351048840260     -3.77023032702378
  H           1.99276361432023      4.12661608645958     -3.95060485960321
  H           3.67912705676710      3.67047775040420     -3.39916849107476
  Br          2.14085087682282     -0.51702209483144      0.74026059405787
  Br          4.26758849462028      1.65037618489901     -0.11432038130953
  Br          1.20306515627763      2.16647774317016     -0.60194364931931
  F           0.62660350961998     -2.54835170810198     -3.36170338359906
  F           2.61685753051109     -2.63530275543746     -2.49547022443698
  H           0.95667662196452     -2.51776670434417     -1.40006988541985
  F           2.41431058801351     -0.52471532695082     -4.76987827778736
  F           3.95937039493237      0.84966392484495     -5.36422952536164
  F           4.43359968450234     -0.80820738192540     -4.08426403447114
