17
Coordinates from ORCA-job NEB E -30.880664541450
  C           0.81849413635070      0.76411457364857      0.04586356486699
  C          -0.25325572157675      1.15464950100393      1.01321445565006
  F           0.67075503206742      1.46334522811799     -1.14415818683650
  H           1.82693110178026      1.00950204366829      0.39960199137036
  C          -0.48899685535956      2.47178732187647      1.32690631938205
  C           0.75959508081128     -0.77649789677074     -0.22582794254804
  C          -0.64865094290406     -1.10579612594062     -0.53356675817205
  C          -1.64254416947101     -0.66274078788143      0.45670268760307
  O          -1.07075579084220      0.17184015652245      1.48353512118501
  N           1.76504027061216     -1.12254875624628     -1.19947480899182
  H           1.04181329768368     -1.22741899739079      0.73966102189532
  H          -0.95736928293739     -1.32277919136373     -1.54142129614856
  H          -2.06269568998005     -1.49871971308447      1.03148564232462
  H          -2.48554012634156     -0.14125096595059     -0.03229901479349
  N          -0.63734301151883      3.57961940183587      1.63279508077325
  H           1.59576656751330     -0.63791645198598     -2.07440381363720
  H           1.76875610411262     -2.11918934005894     -1.37861406392307
