17
Coordinates from ORCA-job NEB_reactant E -30.950011554000
  C           1.41005144888613     -0.15006787406670      0.04129175490324
  C           1.46059168359256     -0.80240109419872      1.21243096515933
  F           0.94988179242584     -0.66255596215140     -1.11470416407226
  H           1.75489554333691      0.86595113104878     -0.06703420501122
  C           1.99460123781357     -0.04264657313521      2.29722736731808
  C           2.57443652973493     -4.50421306478030      0.09670415986533
  C           1.82020047432055     -3.46461499389196     -0.26148764220029
  C           0.67660919441246     -2.98383426655671      0.57159566242713
  O           1.08483478220438     -2.04125075820627      1.57675766795907
  N           3.59506313571226     -5.03432497941310     -0.65281840190800
  H           2.35413293306531     -5.05280037082028      1.00298813793836
  H           2.04324139696213     -2.91418868244348     -1.16309319635792
  H           0.25610687293102     -3.80046018169378      1.16290746250555
  H          -0.11078619217850     -2.54529815525387     -0.04854553207656
  N           2.42706010531620      0.56329611444380      3.16656522620153
  H           3.94269495188951     -4.45209467265314     -1.39886700898509
  H           4.30308410957474     -5.55279561622765     -0.16091825366628
