17
Coordinates from ORCA-job NEB_product E -30.939563153960
  C           3.02054630484692     -1.58676544333672      0.63527608615343
  C           2.20956586050390     -1.07573487270333      1.81061568023581
  F           2.87271290418143     -0.76359190373344     -0.45547398672331
  H           4.08887858166954     -1.61315161191841      0.87991610602104
  C           1.13915553978340     -0.17234078401289      1.42470837848785
  C           2.54130278692032     -3.01832666283017      0.27921040749238
  C           1.09689340894831     -2.96922979943705     -0.15265924961426
  C           0.11522579527055     -3.56655598819145      0.49524326774680
  O           2.39498159893922     -1.42618336833805      2.94582863670332
  N           3.44793145538697     -3.54577555108064     -0.72396237629386
  H           2.64606618004655     -3.62847133295028      1.18417863132765
  H           0.91085439605698     -2.40883547875765     -1.05984898449673
  H           0.29051125222205     -4.12531723631633      1.40051345262542
  H          -0.90333881806737     -3.51907273671449      0.15108913535366
  N           0.29625701915608      0.53656996025644      1.11675867945070
  H           3.38465154067506     -2.99796319311415     -1.57646719953775
  H           3.21200419346009     -4.50585399682142     -0.94502666493213
