73
Coordinates from ORCA-job A3R E -121.331987179450
  Ru          1.86534527584384      3.38450658391203     -0.35153991619362
  H           0.59752539123758      2.07926276419658     -0.40186155042850
  N           2.30780314061875      2.31348673716467      1.40843499285396
  C           2.79387245312650      1.03390414529527      1.23791159030870
  C           1.98111711679649      2.73939959823460      2.63668463761126
  C           2.86482603241715      0.17030420193213      2.37360316790465
  C           2.06918457570973      1.94397238480448      3.75685517531378
  C           2.51505974865080      0.61983034960570      3.60823066790078
  H           3.21658942371235     -0.83828015191117      2.22024272382730
  H           1.80051449557259      2.33213738926792      4.72473993724367
  H           2.57700962841850     -0.02431204573413      4.47207250611627
  P           3.38289392721159      1.86474767775199     -1.24530039695189
  C           3.06273930586938      1.10497201181230     -2.95229148000508
  C           5.21304908905060      2.40524262345788     -1.10496319725697
  P           0.90177126654086      4.74504211120578      1.14632308537350
  C           1.64453116517889      6.48942835651886      1.10475204239348
  C          -0.82851072720451      5.43816466560774      1.62461633728567
  C           3.15159441145540      0.59624235937308     -0.03370386925278
  H           1.08515857697363     -0.12526542588987     -0.13948064105086
  H           3.61672316442763     -0.37349613961073     -0.14476084939649
  C           1.50709853254964      4.16897847059431      2.78509203670737
  H           0.74202123566189      4.24974948673973      3.56392327318798
  H           2.35931939070139      4.80149664949678      3.07089563808849
  C           1.49415929260948      4.29973887553142     -1.92034791873605
  O           1.30942568397754      4.90786385347958     -2.87558621175619
  H           3.03369753976018      4.31938757408357     -0.15490800114642
  C           3.54211869203804     -0.34277141100955     -3.03720538392092
  C           1.54762251062654      1.12421580556218     -3.17549507467560
  C           3.69971907699279      1.96284593828305     -4.04388472402334
  H           2.99039927841148     -0.96870531638922     -2.33979483214391
  H           3.35921780061024     -0.72092050522665     -4.04241078478670
  H           4.60311431810347     -0.43730231413476     -2.82926610718041
  H           1.14943621217887      2.13801410642085     -3.09425254733577
  H           1.32221168273306      0.75990126632425     -4.17712799108137
  H           1.03191238951939      0.47818602339919     -2.47047476499980
  H           3.44889064912697      3.01204539345822     -3.89169949577729
  H           4.77965816177628      1.85204360914419     -4.07088865517855
  H           3.31315241060618      1.65983752512920     -5.01657091975576
  C           5.44721305302906      2.67388358724261      0.38451648737828
  C           6.18068217784652      1.30717471312924     -1.54195070811857
  C           5.46506215161354      3.70335772521834     -1.87084563278283
  H           5.33051740984816      1.76592289713440      0.97334173555638
  H           6.45828432140249      3.04803606374822      0.53589505047304
  H           4.74943676678239      3.42572984333603      0.75455534563163
  H           6.15871065089724      1.14417417465642     -2.61578498064795
  H           7.19639295146122      1.59584464577271     -1.27298824872617
  H           5.95308740780446      0.37156316318769     -1.03352756965058
  H           5.56092964516817      3.53925266549682     -2.93859745912199
  H           4.64967514255269      4.40646711502616     -1.69507337182307
  H           6.38910113502651      4.16022102585478     -1.51980801261421
  F          -0.88608679658743      5.95603459101591      2.85695985164722
  F          -1.19145212620481      6.38698247156244      0.75815846017217
  F          -1.76591859777918      4.48058422411145      1.57438774548957
  F           2.96205781498697      6.41399924531357      1.33451143111954
  F           1.47957503727182      7.02217205021576     -0.10782721637309
  F           1.15531944308892      7.35533571099783      1.99979037971829
  C          -0.24234288441990      1.29775761960775     -0.24855308107857
  O           0.22878928964890      0.02435006074851     -0.58325136307678
  C          -1.37604636196099      1.68611611097803     -1.16627457938537
  C          -1.61639576921049      3.01659666289547     -1.47657655260517
  C          -2.68526971912169      3.36818126633995     -2.27926296099940
  C          -3.52175039778887      2.38726377958969     -2.78505300784127
  C          -3.28390385486342      1.05744458430380     -2.48351748870802
  C          -2.21892248691403      0.70651083517150     -1.67373370473422
  C          -0.72284379765031      1.31622477345525      1.20707753174199
  H          -0.95752746928352      3.79297971455478     -1.09339925217154
  H          -2.85987012686118      4.40749188985818     -2.51268921552278
  H          -4.35418455726877      2.66008321589073     -3.41617071430597
  H          -3.93106128344163      0.28848462736052     -2.87850368307903
  H          -2.02261388088965     -0.32721022882138     -1.43601139000578
  H           0.05680936371167      0.96314174208370      1.88035900833082
  H          -1.57434936864274      0.64314154044606      1.29246806085144
  H          -1.03899660284330      2.31152066463560      1.50611660617936
