73
Coordinates from ORCA-job A3S E -121.331112549650
  Ru          1.62254755312348      3.45614231429376     -0.43952138129712
  H           0.27200054903789      2.23451982512097     -0.30528736358743
  N           2.15884877312411      2.56298606239252      1.39711242691672
  C           2.65445189784594      1.27952568377969      1.33008478793293
  C           1.86868690574771      3.09425061619061      2.59328054246774
  C           2.82201913080090      0.53975908386984      2.53669139282642
  C           2.04395549797850      2.41665295369545      3.77884401507174
  C           2.52984626733882      1.10219822282368      3.73986427620711
  H           3.19795974110470     -0.46896364904516      2.46323952530948
  H           1.80546745467886      2.89170773323328      4.71537727469020
  H           2.66698950886283      0.55315452933270      4.65877540133643
  P           3.10341583567426      1.84996731428477     -1.25604672747684
  C           2.74393181033073      0.92485515012612     -2.87400036314871
  C           4.93990759291551      2.39894230707451     -1.22593599974574
  P           0.84111985426734      5.02007818477066      0.95791492806950
  C           1.85190662020611      6.62749804136346      0.90223178561932
  C          -0.81589667840014      5.98105490026772      1.21991270219336
  C           2.92874883488554      0.70479251341680      0.08596138831125
  H           1.06965474685306      0.11544713557902     -0.08870674182099
  H           3.43009497867943     -0.25386502947521      0.05943721913118
  C           1.34818320613177      4.51486389341970      2.65146356643285
  H           0.51529554883615      4.58216725244555      3.35781845554441
  H           2.14803261063254      5.18108088418928      3.00106187260720
  C           1.08025461679976      4.19284755381313     -2.05125290967397
  O           0.75782096414286      4.69581823438817     -3.03189261469378
  H           2.81681498965187      4.37163491251672     -0.48412154226418
  C           3.18900548786627     -0.53452138356650     -2.80512816044479
  C           1.22916268984964      0.96125046685480     -3.09664367775988
  C           3.38862266310813      1.64570976305727     -4.05660434745502
  H           2.62121816661546     -1.07170023622150     -2.04892185801220
  H           3.00160725305010     -1.01168536326507     -3.76638775593839
  H           4.24707730301167     -0.62957373691407     -2.58210370855709
  H           0.86693607317159      1.99060034494751     -3.11977366548225
  H           0.99242581232525      0.50224890566217     -4.05601370178676
  H           0.69947882544491      0.40648361871516     -2.32766042346763
  H           3.15716558988041      2.70942282402539     -4.01775168311405
  H           4.46564654335319      1.51217699345094     -4.08095393465803
  H           2.98752255868282      1.24562146117608     -4.98749896840332
  C           5.22047891369904      2.83162515174788      0.21656880827869
  C           5.89116948492239      1.25086431110989     -1.55973575913814
  C           5.18099992558538      3.60101776166021     -2.13852752780114
  H           5.11641066208043      1.99829183375599      0.90890459537952
  H           6.23915027932135      3.20804702183373      0.29342373406998
  H           4.54293984500572      3.62994277448608      0.52205164244243
  H           5.83451275428809      0.95785883743648     -2.60408256978659
  H           6.91533076324531      1.56527089348595     -1.36110126701035
  H           5.68066400014492      0.38442050309134     -0.93492119133372
  H           5.27175939339350      3.31638596732003     -3.18093338831053
  H           4.36476984018543      4.31752332608806     -2.03887456062801
  H           6.10504603273156      4.09857899438334     -1.84832740335823
  F          -1.27376678685254      5.94018752373553      2.47823209035964
  F          -0.75699533503542      7.26014347280265      0.85742144593914
  F          -1.75560049365309      5.41313038150250      0.44464211954253
  F           3.15167450684800      6.33056552190222      1.03614116391552
  F           1.70865046690175      7.28921735310161     -0.24294036676914
  F           1.56003158330283      7.46531957459882      1.91109442973950
  C          -0.43278773794728      1.35913182500759      0.01811668747658
  O           0.11795522885563      0.14044524529364     -0.36269395780552
  C          -0.67538496150030      1.43020701822215      1.51356560485232
  C          -1.17461858865705      2.58673098427497      2.09625675107621
  C          -1.45992324966455      2.63559583412592      3.44781081629614
  C          -1.23407181791989      1.52306504862800      4.24096786690668
  C          -0.73757255433557      0.36546027155073      3.66969664504185
  C          -0.46638679628588      0.31496320759122      2.31392321444912
  C          -1.74578226857620      1.54680916219444     -0.74342721542674
  H          -1.36878431600556      3.44874507159936      1.47243027832409
  H          -1.86312690808630      3.54029766820988      3.87924384960436
  H          -1.45129374079752      1.55878275283578      5.29779863825062
  H          -0.56463180032654     -0.50849382548425      4.27952091767573
  H          -0.10318198946779     -0.59928782410954      1.86917290498750
  H          -2.43305819349638      0.75508342963384     -0.45306248526182
  H          -1.56423910625192      1.47500450274991     -1.81281756180191
  H          -2.19347481326146      2.51104814184411     -0.52110298205603
