73
Coordinates from ORCA-job TSA2S_3S E -121.324538843120
  Ru         -1.11375761450767      0.32508384004977     -0.57432035018242
  H          -0.65949424787569     -1.37064865076773     -0.49316202775249
  N          -0.07450632800060      0.37888228514133      1.26136426008613
  C           1.27424050591826      0.21370967981502      1.20847742982138
  C          -0.68877261954466      0.42325170089765      2.44788066657633
  C           2.01750786474177      0.12314804028164      2.40099731150265
  C           0.00157236641813      0.34427925582571      3.64424197432179
  C           1.38515824593424      0.19575345817763      3.61494754912114
  H           3.08593479380740     -0.00926184705308      2.33601861781516
  H          -0.53275890378039      0.39163381014191      4.57844771209651
  H           1.94390879196320      0.13244581843349      4.53562840717620
  P           0.99410550248931      0.88029737667478     -1.39831151431357
  C           1.64319991638351      0.16355901879732     -3.02860152066908
  C           1.48758618901649      2.72100972762852     -1.25670766101558
  P          -2.86759803761970      0.29579018853934      0.79987910765657
  C          -3.94389351500831      1.86398456439674      0.74999006487130
  C          -4.41503880925883     -0.83347738426919      1.08913693106827
  C           1.90245958823271      0.04033335512739     -0.07793142344124
  H           1.65408642198000     -1.28770447737394     -0.35695495825106
  H           2.98481848442870      0.14782030292309     -0.07572320006799
  C          -2.19126904596051      0.57819414937132      2.49115406394453
  H          -2.61857958120220     -0.11911903956436      3.21869549096428
  H          -2.44217309797476      1.59903631382785      2.80876673566884
  C          -2.03393129150505      0.23651266084353     -2.18179294212625
  O          -2.64896786615915      0.22633894382802     -3.15074597695199
  H          -1.37252262389789      1.82471326844559     -0.53964593707765
  C           3.12338448015296     -0.20505940903874     -2.94426677254402
  C           0.84458479548847     -1.11212383696337     -3.30571536631449
  C           1.37123257238874      1.12843658759781     -4.18251144272963
  H           3.27013548649379     -1.01739865576834     -2.23698812000046
  H           3.45885841570656     -0.54812220250075     -3.92216551982611
  H           3.74485619466482      0.63603089848563     -2.65335616016115
  H          -0.22124792759165     -0.89473771947125     -3.38388062822890
  H           1.16977391254136     -1.54666374462025     -4.25001608865183
  H           1.01237644943038     -1.85093115818047     -2.52536762978949
  H           0.33765608284816      1.47159875222068     -4.14798513235585
  H           2.03696520623793      1.98633932076746     -4.17092537725256
  H           1.52235153902704      0.60952912996410     -5.12858715317005
  C           1.25432442276594      3.13157258139034      0.20040151214578
  C           2.95942499681435      2.96959787339339     -1.58209819517237
  C           0.57701557297014      3.57601704331270     -2.13884797661987
  H           1.92692741946102      2.60922546803520      0.87839283925066
  H           1.43528818741605      4.19992446561876      0.30912202736507
  H           0.22400029142996      2.93578409448679      0.49853200473049
  H           3.18334476316989      2.80090592583909     -2.63098125448594
  H           3.20234020228809      4.00765857356281     -1.35679291244276
  H           3.60518272243981      2.33794569422470     -0.97450030432002
  H           0.86405458964078      3.53905101189593     -3.18380660408220
  H          -0.45600119425923      3.23942363254199     -2.04558375402060
  H           0.62484148583679      4.61516389306381     -1.81735536703056
  F          -4.55047851398253     -1.25222383029917      2.35503668594878
  F          -5.56539664755614     -0.26498649367841      0.73329908540799
  F          -4.28530231093910     -1.92891379198657      0.32483938685771
  F          -3.15916844712175      2.94328868346718      0.86802362239915
  F          -4.62600448109416      1.98612324279448     -0.38490824938818
  F          -4.81307512899023      1.93140392762858      1.77339938228840
  C          -0.08860108346412     -2.45481868760699     -0.19242521351328
  O           1.17420905042463     -2.43173182828899     -0.61831693692046
  C          -0.21995383436793     -2.61686608280163      1.31271785550644
  C          -1.44428227355295     -2.53384369878639      1.95948896027971
  C          -1.54751676420650     -2.76439356887413      3.31842158154884
  C          -0.41476763596961     -3.06885061376003      4.05500308897010
  C           0.81210539908377     -3.15099164062013      3.42077977215624
  C           0.90839115835966     -2.93362776410106      2.05842140429107
  C          -0.92080196812438     -3.52188406825870     -0.91278033750465
  H          -2.33059047902264     -2.30783606064352      1.38162831781917
  H          -2.51319928124818     -2.71262093348578      3.80080319032789
  H          -0.49205580318492     -3.24716185455286      5.11718610075114
  H           1.69939373424002     -3.39271154702525      3.98716220769167
  H           1.85791596145511     -3.01807639211790      1.55075757244015
  H          -0.52434410576255     -4.50001935385259     -0.64545993064559
  H          -0.83081522901562     -3.39391119776303     -1.98864714919371
  H          -1.96864707234034     -3.47008102538441     -0.63087583265344
