17
Coordinates from ORCA-job NEB_product E -42.537403998310
  C           3.22852431181812      0.28929560213770     -1.75416994957178
  C           1.74556213832987      0.17075679526440     -1.48065478623155
  F           3.88674341696280      0.27511958286720     -0.55854660751464
  H           3.56466387449130     -0.58765567534206     -2.32689327666327
  F           1.08404421390718      0.04197951187471     -2.66641202677978
  C           3.50335479566683      1.58976212264858     -2.54282505570889
  C           3.22319457675449      2.78866738490502     -1.67433987785799
  C           2.30472390053550      3.68947267352009     -1.96278651734023
  O           1.15559987001867      0.17790754129137     -0.46822290576615
  C           4.93342884356498      1.64056310247166     -3.09375463213631
  H           2.83377014053989      1.59323190700065     -3.41052218772098
  H           3.81927201173996      2.85492355660154     -0.77642713559760
  H           1.70278699129427      3.62906748444626     -2.85478479166946
  H           2.12051585443857      4.52822663484587     -1.31542573116416
  Cl          5.10782857219424      3.12396833590615     -4.06372931389767
  Cl          6.16204547707164      1.65195624715994     -1.81845938624183
  Cl          5.23854101067169      0.24675719240095     -4.16524581813771
