17
Coordinates from ORCA-job NEB_reactant E -42.517084783370
  C           1.95937548499453     -0.17454065584294     -0.40308951140402
  C           1.23082824711875      0.24047502021935     -1.43467635169135
  F           2.92986039901673      0.56741631026754      0.17194480126253
  H           1.83197254559111     -1.14470990811093      0.04422820025342
  F           0.30392098017235     -0.61300265775784     -1.89394733518171
  C           4.21479192727947      2.83356930273066     -3.23848937765448
  C           3.49164612549503      2.01699916318432     -2.48918759153619
  C           2.14898703305684      2.38250802525236     -1.93301390734056
  O           1.17986447969235      1.36793872454918     -2.15029583673273
  C           5.56218352646934      2.53436431168131     -3.78893971952374
  H           3.85992064124137      3.82206956699876     -3.49572775405688
  H           3.85354562262940      1.03082522054242     -2.23743656444142
  H           1.74324384913363      3.26087066616998     -2.43897183384436
  H           2.24289190156308      2.60015155361761     -0.86164435739525
  Cl          5.52402137672204      2.72807145026950     -5.56682870528366
  Cl          6.73668554901299      3.71268530989940     -3.12728065019450
  Cl          6.14276031081099      0.90700859632934     -3.42074350523509
