17
Coordinates from ORCA-job NEB_product E -37.813354108790
  C           2.22035040906042     -1.19344993944853      1.11908082606004
  C           3.25372828872729     -0.41298662309217      1.92648288648966
  C           2.63602658295394     -1.40601489450290     -0.25412875563847
  H           1.30136202361271     -0.59175736179029      1.10422365040985
  Cl          4.20175117695186      0.67011430347486      0.94894223814036
  C           1.92470315956614     -2.52779029147939      1.82093752833732
  C           0.89320468655188     -3.36108133647131      1.12101281321368
  C          -0.06522779669443     -4.00555144101737      1.75949825617773
  O           3.37614535239408     -0.48002884804511      3.10420868491564
  N           3.20927203814134     -3.31875894923579      1.90045840940627
  H           1.63231421361564     -2.34626018652457      2.86170831742129
  H           1.00368394188927     -3.43078864995957      0.04751238571637
  H          -0.17392472565407     -3.95403547232032      2.83005890283456
  H          -0.77663777929460     -4.61623016279958      1.23282825739371
  N           2.91074950811795     -1.60725482818336     -1.34276612633384
  O           4.20675641769381     -2.78869632273013      1.48372923317465
  O           3.12794250236676     -4.41392899587445      2.38241249228118
