17
Coordinates from ORCA-job NEB_reactant E -37.805151229090
  C           1.75947584281145     -0.51847828837126      0.01788773833312
  C           1.65616183513940     -0.07513115820765      1.28118424878081
  C           1.44423118566769     -1.80177240296314     -0.44560209978092
  H           2.10762731533303      0.16395435806417     -0.74290888021582
  Cl          2.06677548392263      1.55687966559932      1.64676219217622
  C           2.22055918287435     -4.16292697031655      1.80644437626345
  C           2.19595648634749     -2.91541316510556      2.25446105318698
  C           0.96762856802714     -2.07692993174902      2.39162418621975
  O           1.25690526898418     -0.68882879017665      2.40027909444970
  N           3.45691237059029     -4.89572276810271      1.74959110665383
  H           1.36793586834593     -4.71971154632711      1.45101309185280
  H           3.12503364673344     -2.45690016007951      2.57533857625610
  H           0.52156437073945     -2.25715777078682      3.37718854068781
  H           0.22764465937116     -2.32135081285070      1.62221409963463
  N           1.19777987481499     -2.83748218121201     -0.87671398957230
  O           4.47391345005496     -4.32433246499779      2.07445884299021
  O           3.38739459024239     -6.04479561241703      1.38127782208362
