18
Coordinates from ORCA-job NEB E -38.223055988170
  C           0.34054062769796     -1.01304517591292     -0.32838730034178
  C          -0.32379390416016     -0.11067940730776     -1.24133649480390
  C          -0.45982574906858     -2.14322396673042      0.05368011731740
  H           1.32290557058056     -1.32699149317622     -0.69564061101188
  N           0.53485742578560      0.57539217216720     -2.20228134301871
  C           0.54096317038472     -0.11957057443488      1.14227396109087
  C          -0.35030927624006      1.01977252737126      1.16399681698446
  C          -1.65892388447275      0.76586370138673      0.67015082346924
  O          -1.38316269416840      0.51248103914361     -0.88753445459786
  C           1.93622431035242      0.21402539405712      1.26955748950868
  H           0.26957864484532     -0.89047731502802      1.87029877213529
  H           0.07731702340723      1.99791184910926      0.98442299426587
  H          -2.34946720451503      1.60018532543512      0.63601950211775
  H          -2.13223833763929     -0.16016873157062      0.99493706766964
  N          -1.10464025326618     -3.02868491474072      0.37701231227324
  O           0.14468613264907      1.63611388980270     -2.63164399897578
  O           1.55174878838299     -0.00772718823910     -2.52848916449754
  N           3.04353960944461      0.47882286866766      1.35296351041500
