18
Coordinates from ORCA-job NEB_reactant E -38.266430699690
  C           1.76070431078306      0.25239572083118      0.49511261014775
  C           1.32218379271870      1.50473048663956      0.27894155116402
  C           1.62908234042971     -0.49464754602457      1.67138175653519
  H           2.25718972338424     -0.24866606213985     -0.32743114059883
  N           1.55273034874410      2.08467902327036     -1.06424141552365
  C           2.04895294963434      1.53832641559441      4.25478148656933
  C           1.72675197299564      2.29794288772476      3.21109786639186
  C           0.46895645152624      2.13601685965747      2.41455048887835
  O           0.68137567870833      2.38657708288444      1.03148953107426
  C           3.22675935720880      1.75328314301082      4.99899546087511
  H           1.43060431731062      0.71326210330048      4.58294644759105
  H           2.36860131574160      3.11064078998896      2.89614776365136
  H          -0.25040234889726      2.90872760231650      2.71053485270981
  H           0.01721277448385      1.15039774263094      2.56758459225380
  N           1.53825059580038     -1.13990775072685      2.61655661323611
  O           1.20016614264185      3.22207216685411     -1.22637050855063
  O           2.07596922737072      1.37120985682960     -1.88627354349880
  N           4.18341104941510      1.92375947735768      5.60589558709393
