18
Coordinates from ORCA-job NEB_product E -38.257043780570
  C           1.76292433531067      0.64589272825031      1.28186068927655
  C           2.04719166931758      1.80872388136968      0.37408701913196
  C           0.41331168058049      0.16889805057786      1.06374109782819
  H           2.47312034052396     -0.16360667725905      1.06150543965545
  N           3.31814149604169      1.58572407415829     -0.50779978031980
  C           1.91397897347845      1.08841196807425      2.77455142950689
  C           0.84101441362477      2.06313069742883      3.18832231702488
  C          -0.02530449667272      1.80932188633109      4.14978848681687
  O           1.48188534553900      2.83713627709948      0.24790498514618
  C           3.21711997640756      1.70047886925323      2.93894328198502
  H           1.86408667418736      0.19042944509094      3.40199171403505
  H           0.82132301177785      2.99648174206474      2.64381226596163
  H          -0.78268563402661      2.52261833028476      4.42189191189734
  H          -0.01677170930572      0.88453451433730      4.70376459370430
  N          -0.65048399078618     -0.21354444308512      0.91361993549111
  O           3.61726416837914      2.51312873066318     -1.20065654378045
  O           3.86652051380078      0.51512202571931     -0.41557878456058
  N           4.23506323182191      2.20691789964097      3.04094994119938
