25
Coordinates from ORCA-job R E -42.900532240730
  C          -0.79540612651933     -0.26573573460465     -2.74653790595990
  C          -0.61434113546777     -2.88830988395656     -1.28060107044299
  C          -1.71062170655644     -2.36378779370863     -1.81719422274146
  C          -1.81732249545475     -1.01100257871194     -2.33265848669483
  C          -1.15653890605793      1.18899683699828      1.06732791136009
  C          -0.29466502036363      0.23436868878408      0.75168257334732
  H          -2.61988846281940     -2.94876170425780     -1.86985441408668
  H          -2.82284631477896     -0.61193834877828     -2.40502964281741
  C          -0.97250533300404      1.12352319765934     -3.25428885924462
  H          -0.59847311522605     -3.90267865737336     -0.92097971186017
  H           0.22347096699033     -0.61986765980419     -2.71976507203338
  H           0.29387696326921     -2.32214081974252     -1.16839200250411
  H          -2.08145153053406      0.96836574490353      1.57332627068457
  H          -0.48926133968472     -0.80953410580709      0.95198226023779
  H          -0.95806765551067      2.22030249945712      0.83026922585362
  C           0.96799203939314      0.48903298489094      0.02184744887650
  F          -0.33669681034114      2.02519967911341     -2.45096349094067
  F          -0.40512632076250      1.28144451722697     -4.48162838553551
  H          -2.02470679007773      1.43876636815934     -3.33120015647754
  O           1.57280082567386     -0.36931204764521     -0.57884834622667
  O           1.36312055854534      1.75789755984585      0.10246068336100
  C           2.52301301207370      2.11153973378863     -0.63758697590738
  H           2.86492557698035      3.06280366739013     -0.23817911289974
  H           2.26699758609506      2.21649181016627     -1.69348558054476
  H           3.29129153413814      1.34333604600637     -0.52857293680308
