24
Coordinates from ORCA-job NEB E -44.425411602860
  C           0.25684483537514      0.55106174597241     -0.30891038322038
  C           0.18905056333487      0.43173689711369      1.11073014341734
  O           1.50282642412989      0.31339834224241     -0.91954812141286
  H          -0.21086779906511      1.45983767889324     -0.70221807913466
  C          -0.71481605831175      1.30567863142186      1.92570779432974
  C          -0.59590177508615     -0.89342155344632     -0.94389867840652
  C          -0.59724030775749     -1.93048581257961      0.03737592284626
  C           0.62827716264553     -1.95365865771356      0.80855371357659
  O           0.57038468827443     -0.69449874057243      1.65666865558267
  C          -1.94050801085222     -0.52880763422853     -1.52476304227963
  H           0.12587075139349     -1.05698220173145     -1.74708229666749
  H          -1.51048175443597     -2.08782707275950      0.59780612959225
  H           1.53109025834258     -1.88252025052115      0.20028696988160
  H           0.70414053863464     -2.73797577429015      1.55581306706108
  C           2.41159176897431      1.37268301342650     -0.73071565382348
  H           3.30872135840410      1.10449010002737     -1.28469227365483
  H           2.65782619018650      1.50571443314401      0.32872471578665
  H           2.00592001610060      2.31286570763095     -1.12231511012961
  H          -0.14987863361467      2.14464600081079      2.33363466656685
  H          -1.12519384811178      0.73728092741268      2.75630805408928
  H          -1.52043786364888      1.70826715148650      1.31703365389879
  Cl         -1.80293660631547      0.74705392529039     -2.75525793835463
  Cl         -2.65590728451158     -1.96040600634180     -2.31214640357280
  Cl         -3.06837461408501      0.03186914931169     -0.27709550597219
