24
Coordinates from ORCA-job NEB_reactant E -44.458392477070
  C           1.44022490437204      0.36735242026286      0.08706459934846
  C           1.18450446588644     -0.92885617943896      0.27228302065034
  O           1.28081292431176      0.99365343506632     -1.11660603551260
  H           1.79130383755582      0.97828209895630      0.90976420696815
  C           1.29454224268084     -1.57940680040025      1.62113035793878
  C          -0.86007813188643     -4.45389327260025     -2.22887925256091
  C          -0.53604804022498     -3.19310920598331     -1.98696344651114
  C          -0.15653969704468     -2.67507229025511     -0.63773461340657
  O           0.85757559838444     -1.71034768645669     -0.81662072573693
  C          -1.27456092309378     -5.00474796437671     -3.54347394387034
  H          -0.85879766419595     -5.19546697206783     -1.44135388883857
  H          -0.52104951689129     -2.44807674760420     -2.76850677979596
  H           0.17697212460266     -3.49542479914205      0.01268638094411
  H          -1.04666143054918     -2.21046752549456     -0.18242333265404
  C           1.96098786312342      2.21634725693163     -1.24480628771133
  H           1.66445413718215      2.63418574173184     -2.20521111306581
  H           3.04742963202577      2.07358070279859     -1.23277113558228
  H           1.68586814027425      2.91372128599837     -0.44456881536241
  H           1.91067770894082     -2.47530631497912      1.55472193550722
  H           0.31536305788483     -1.86557082319703      2.00620586012296
  H           1.75114514688834     -0.89180144061088      2.32569022855796
  Cl         -0.18592042364365     -6.35212329775313     -3.99198610946487
  Cl         -2.93405744211441     -5.66817778680405     -3.40664639955584
  Cl         -1.26164851446924     -3.82367383458180     -4.85539471040842
