19
Coordinates from ORCA-job NEB_reactant E -34.318689265950
  C           1.82640544957893     -0.06930063855040     -0.05489452691004
  C           1.16279776006046     -1.21514897840444     -0.24325876437668
  C           2.11333957879281      0.89574221721128     -1.15149350836554
  H           2.23307028808333      0.15806216542947      0.91752394210412
  O           0.92147626662633     -2.11010995624695      0.75232306883920
  C          -0.10789892536572     -3.89302586523571     -3.75969248115989
  C          -0.52158705061390     -2.93244144995143     -2.94469190304045
  C          -0.04864828240221     -2.78862270127130     -1.53682817143102
  O           0.64519091773852     -1.54318552819034     -1.43658628626656
  O          -0.50053779654211     -4.07285898710100     -5.03705748933219
  H           0.58843340785787     -4.65991082394866     -3.45176879476736
  H          -1.21117522266028     -2.17384861451818     -3.28909486145276
  H           0.62139573332889     -3.61104506127625     -1.26508258894086
  H          -0.89671819166995     -2.78182185775427     -0.83942810189808
  F           3.47472506536061      0.95826275126277     -1.41086908351753
  H           1.82123121757392      1.91812531074577     -0.88470027362831
  H           1.63173749957141      0.58588748052320     -2.08131418893361
  H           1.34767508428827     -1.81508942896030      1.56440538364760
  H          -1.10711279960718     -3.36797003376325     -5.29919137057004
