22
Coordinates from ORCA-job NEB_product E -32.885715323960
  C           2.95014632880832      0.44136893513317      1.11821165531624
  C           1.50481556585145      0.92394945936450      0.99946528612139
  N           3.13194135238038     -0.85597588491398      0.48986544230567
  H           3.65168668927648      1.14596901894542      0.66339556728297
  O           1.23040200544793      2.23464258711663      1.06348350465004
  C           3.31100172251555      0.33136794891553      2.62758559652757
  C           2.54391697868553     -0.79144181802727      3.27341406820150
  C           1.51712108685769     -0.61448970845065      4.08247037754577
  O           0.59742634150641      0.14525525891921      0.86560565749957
  N           4.75653224832468      0.18266014748511      2.70697055057659
  H           3.04782049653058      1.27108730850374      3.13063648725979
  H           2.90583722695982     -1.78421912036256      3.04225678268414
  H           1.14493531824364      0.36859193743704      4.32168889059771
  H           0.99493272083643     -1.44231949507011      4.53036916165424
  H           2.33932765399043     -1.44538574855357      0.73374005267915
  H           3.12634357292045     -0.75909561606132     -0.52007347041562
  C           2.23637112264149      3.22933378110175      1.10112263872981
  H           1.70054927637108      4.17222176756217      1.20084284816915
  H           2.81390579518061      3.24181146862124      0.17332364485250
  H           2.91158267338434      3.10273685131981      1.94886236045142
  H           5.03176686462792     -0.59712050365562      2.11701486736602
  H           5.03243695865874     -0.03084857533022      3.65994802994436
