20
Coordinates from ORCA-job NEB_reactant E -37.141656221910
  C           1.73556059591471     -0.16790645536622      0.12787037335280
  C           1.44190492660752     -1.46879267304508      0.22551117894407
  C           1.66637277956375      0.70324228761006     -1.08388271320654
  H           2.03047011585862      0.34356407105504      1.02841045232105
  Br          1.53232779044748     -2.23461391060115      1.97944247410748
  C           3.23831662932482     -3.85790578794289     -2.74574080467743
  C           2.79835895552762     -2.71781957092756     -2.23885298562981
  C           1.34999700158795     -2.42112063706729     -2.00307627173658
  O           1.04697658691665     -2.41647108146389     -0.59728646495393
  C           4.67244981526937     -4.17804169605744     -2.98495968116436
  H           2.53313634762015     -4.62946780638656     -3.02870723072575
  H           3.49277612716236     -1.94125085651358     -1.94930074682398
  H           0.72039900078756     -3.22334324254074     -2.39360953967778
  H           1.05321310378452     -1.48031414659030     -2.46940901668329
  F           2.61854143316387      0.40337556885243     -2.01425117578911
  F           0.47798612196122      0.59504099135489     -1.74108100499040
  H           1.79699122556656      1.76221145343415     -0.82001170416196
  H           5.31455300958421     -3.35538641374085     -2.68191943395423
  H           4.83722777924841     -4.38541587563118     -4.04168208390917
  H           4.95234065410264     -5.07148421843184     -2.42776362064107
