21
Coordinates from ORCA-job NEB E -33.369305400620
  C           0.58818962443967      0.19741578666402     -1.20425780402248
  C          -0.34946904765276      0.75496554704210     -0.35280794364309
  C           0.12491479272956     -0.76289946018699     -2.26356547922990
  H           1.40493528307544      0.83999189404625     -1.50386966588067
  O          -0.02149583092855      1.96551876396693      0.18006599835519
  C           1.41492837270859     -1.16805713258339      0.21944287313604
  C           0.58699023446818     -1.08840267654998      1.31144121124518
  C          -0.80618166981669     -1.26008147626382      1.09170485594752
  O          -1.29749578714630      0.07183823812294      0.19082830538147
  H           2.43795854885997     -0.83648486415900      0.30905067150389
  H           1.26350764399822     -1.96094264803217     -0.49231322997507
  H           0.88154744473406     -0.45718612747465      2.14123548449677
  H          -1.47305030225577     -1.17253794857285      1.94034493397479
  H          -1.09330503456393     -2.05556954221519      0.41249291736061
  F           1.15657240179657     -1.53727717438329     -2.73901395125474
  H          -0.25778102896812     -0.21238773684193     -3.13341787605542
  H          -0.64868673096464     -1.44263188469532     -1.89420733294302
  C          -0.82954740770622      2.43236868838673      1.24421860599294
  H          -0.46576904093398      3.43050292133789      1.47615618919221
  H          -0.73694529701311      1.78829860016008      2.12179688275436
  H          -1.87981716886017      2.47355823223166      0.94467435366343
