18
Coordinates from ORCA-job NEB_product E -41.441398730360
  C           2.15359402347145     -1.82437783806892     -1.26682118989816
  C           0.87728328628653     -2.53800957221461     -0.92160039750760
  I           1.64143648270669      0.25933472050776     -1.18068301426514
  H           2.93726627236877     -1.99821289879544     -0.53208906332382
  C           0.81648100304625     -3.08136344441550      0.51405803369966
  C           2.62744843021512     -2.23328781113401     -2.66683178169606
  C           3.85069196832195     -1.46274781298626     -3.07485482294617
  C           3.86578514856674     -0.57133253738920     -4.04735154636234
  O          -0.02369576447030     -2.71609592672438     -1.68510299804400
  O           2.89387454603133     -3.61702256068173     -2.54495412126041
  H           1.80673605462901     -2.05907411985810     -3.38009444373665
  H           4.74043094306446     -1.70396413636662     -2.50906611586489
  H           2.97896544017246     -0.33283719985115     -4.61149880560241
  H           4.76037113336018     -0.03452755891808     -4.30984920719447
  Cl          1.94305712047834     -4.46551648759957      0.52257793592242
  Cl          1.34507306563987     -1.88105474603655      1.70235086172354
  Cl         -0.81245173716616     -3.62964575702607      0.90791029379030
  H           3.21775258327730     -3.94976431244158     -3.38909961743380
