18
Coordinates from ORCA-job NEB_reactant E -41.438340073750
  C           1.62233924999338     -0.14450339538883     -0.08282470116194
  C           1.52267805558970     -1.42154199030464     -0.44293398493109
  I           1.79629141856831      1.48961419014649     -1.37867507099477
  H           1.57141300254010      0.14894143903759      0.94881477352649
  C           1.31712724566350     -2.50656979986886      0.59830214142782
  C           2.96619560025106     -3.21560533502178     -4.43948038764300
  C           3.17592899044562     -2.85317907522693     -3.17986209461908
  C           2.62047075733581     -1.60150139245751     -2.58685310081006
  O           1.58272297872139     -1.98090492772159     -1.66358393894401
  O           3.42373900434345     -4.33409849478015     -5.02843063381540
  H           2.40849158711114     -2.60334941016846     -5.13402957216383
  H           3.72563075108478     -3.49462881320852     -2.50405141749843
  H           2.19038130576897     -0.96589852202946     -3.36611585029376
  H           3.40167294816638     -1.05230244201570     -2.05214818728718
  Cl          2.83783669678375     -3.43932389282747      0.71396089579988
  Cl          0.90884620030153     -1.91089388940341      2.20745780217030
  Cl          0.02530993845935     -3.59871309958437      0.05503621047528
  H           3.90532426887178     -4.87684114917641     -4.38988288323724
