73
Coordinates from ORCA-job A2R E -112.905684173870
  Ru         -0.12183043257033      1.76328959758387      0.23028051711290
  H          -0.27365761278949      3.28834627080175      0.06940701390465
  N           1.01880986950008      2.18350669906707      1.92437175862922
  C           0.44258015724429      2.69444364583805      3.02816911824453
  C           2.34839390531336      1.97434636960277      1.94136344196019
  C           1.17139942344986      2.98553887965206      4.17243196908521
  C           3.12846964269335      2.25125585372628      3.05317856219336
  C           2.53664559490275      2.76026846524465      4.19621628318067
  H           0.66604640196419      3.39582046393550      5.03339093147243
  H           4.19032662550815      2.06608032930354      3.01552481476110
  H           3.12220102883158      2.98193848777355      5.07410727045209
  P          -1.83134415997741      1.88162357269124      1.73703022670114
  C          -3.43756161574395      2.81991604389368      1.36115604150047
  C          -2.24134249741069      0.33878175092767      2.78651673831215
  P           1.89121262363568      1.88151062607420     -0.71361247481953
  C           2.77886566254264      0.88214734229967     -2.03242389464304
  C           2.69860206117107      3.53665923821704     -1.14506658415368
  C          -1.02274960937189      2.99224994849358      2.97781882896659
  H          -1.14245871504555      4.00092504354881      2.56292130057442
  H          -1.47625264765287      2.96232493587749      3.97177678592403
  C           2.97776236664739      1.41700566697921      0.70067254666178
  H           4.01679264919246      1.74264308584571      0.58866586544662
  H           2.94795932933855      0.31824108651732      0.72901102215695
  C          -1.15829343675282      1.42561236509511     -1.25985839586053
  O          -1.83195787528182      1.22434779858644     -2.17470320902829
  H           0.13085861363483      0.24348921866360      0.44677395070400
  C          -4.08911739268791      3.49148707767051      2.57132352521276
  C          -3.09612246637591      3.91137309757706      0.34473224085281
  C          -4.40640758522464      1.84722449810142      0.68705137035574
  H          -3.45421816850696      4.27591030862792      2.97619426964742
  H          -5.02079584889562      3.95595195465612      2.24909320549840
  H          -4.32653569358562      2.79241027815103      3.36442047463434
  H          -2.70683267117754      3.47394373774603     -0.57237031115124
  H          -3.99432440183784      4.47953406296354      0.10513258104436
  H          -2.35173857489996      4.60479446389633      0.72993080334385
  H          -3.87596701478726      1.25987673988505     -0.06432656871504
  H          -4.87191088066561      1.17688353038947      1.40507275324376
  H          -5.20029702043155      2.40091624897739      0.18712626836697
  C          -0.92102282614374     -0.07903402648004      3.44317515035268
  C          -3.28533654150207      0.50788372289625      3.88768539768858
  C          -2.66863099527593     -0.76633642867813      1.81853457524166
  H          -0.62544519850709      0.61142016876920      4.23149446913469
  H          -1.02644795176694     -1.06745742718267      3.89033150688140
  H          -0.12584813714630     -0.12835180078518      2.69949317870772
  H          -4.28053003950646      0.66624226991836      3.48255030463309
  H          -3.31640879910953     -0.40580736459935      4.48183519175872
  H          -3.03510667713097      1.32738585082936      4.55848762696005
  H          -3.70484422644534     -0.65923645625964      1.51269850859849
  H          -2.04133242145919     -0.72900554533377      0.92704232287268
  H          -2.55920625052653     -1.74324041904209      2.28944645961695
  F           1.94163347261751      4.21308771528239     -2.02628156416315
  F           2.71160506752943      4.25890242156388      0.00940858886956
  H           3.73284357824491      3.50012556981443     -1.52673297056150
  F           2.31096217154932      1.23022332829039     -3.25231084017928
  F           4.10731900271298      1.18920816367769     -2.03124247955964
  H           2.67091185310431     -0.20492062439030     -1.88994702245485
  C           0.95042521111463     -2.30170831350982     -0.72287832726270
  O           2.08506011322748     -1.90878153545386     -0.92274660093260
  C          -0.14247103310455     -2.05087642252355     -1.68700967470927
  C          -1.48319157510697     -2.28878285201735     -1.38270353061129
  C          -2.47030563770526     -1.98990389566901     -2.30163985385223
  C          -2.13986440822545     -1.46297904991595     -3.53984118350078
  C          -0.81136372449453     -1.24149553021373     -3.86208695265497
  C           0.17666883735957     -1.53098828007898     -2.94300703989718
  C           0.60962511753228     -3.06285410305205      0.53271534380627
  H          -1.76442017703525     -2.69618623066091     -0.42462470416375
  H          -3.50615938132177     -2.16376301210360     -2.04839988210841
  H          -2.91705151421568     -1.22284608372800     -4.24972028390223
  H          -0.54587569305546     -0.83199427397851     -4.82474531131023
  H           1.21337723678085     -1.36963087149728     -3.19470170913864
  H           1.52440426337513     -3.29094396411184      1.07514449478273
  H           0.08283319061816     -3.98386476430104      0.29641645905362
  H          -0.02711554087838     -2.44220872035702      1.16025931023029
