73
Coordinates from ORCA-job A3R E -112.874748345760
  Ru          1.81521601227767      3.57554893850312      0.21908161440983
  H           3.14737894256515      4.27384589575108      0.18476562126700
  N           2.66314054566447      2.49559488239451      1.83380361303080
  C           2.76817446710990      3.03680258049423      3.05811047006387
  C           3.18974755861981      1.24099032532059      1.61630802162721
  C           3.15941044737444      2.31531084695353      4.16397173098147
  C           3.56726496723212      0.44853755334364      2.74114274817356
  C           3.52552012725872      0.97010027190245      3.99667674183778
  H           3.21194763479755      2.78518847511964      5.13278470491370
  H           3.90397402706762     -0.55969566164875      2.55773240763977
  H           3.80639363338113      0.37776445260805      4.85497556166968
  P           1.32207954787444      5.07682492317472      1.90451707406416
  C           1.75766082447690      6.90796559929970      1.68903064321440
  C          -0.31641990121891      4.90777856443452      2.86811023626670
  P           2.84735911192273      1.89440529137080     -0.92634181352569
  C           2.44738753529330      0.79013906889714     -2.39773439991119
  C           4.41862896602365      2.57819824407025     -1.74507497654007
  C           2.53382826824181      4.51789069731618      3.17142470907886
  H           3.48171904468869      5.00058780865879      2.90357289976633
  H           2.26566486879853      4.81583472751528      4.18753335081085
  C           3.35356362916168      0.78311417593751      0.31654704651719
  H           3.78035182652512     -0.18110360755938      0.09411566209011
  H           0.70744842902004      0.24550445353264      0.67445644788931
  C           1.28937734749646      4.57512930509265     -1.24478676166897
  O           1.09929149292944      5.25032338785177     -2.15592085885125
  H           0.22046594116352      2.59155002601267      0.30087055948886
  C           2.11846842319656      7.63496596306135      2.98549675604688
  C           2.97462308774600      6.95649332599370      0.76121258172833
  C           0.59753166417623      7.60983550862397      0.98294047349235
  H           2.98501233117384      7.18601433384271      3.46408028956766
  H           2.37317458165678      8.66657307654636      2.74474093201594
  H           1.29936032771270      7.65667709540438      3.69508655067839
  H           2.73252419832145      6.54747924750049     -0.21862028801256
  H           3.29530124943661      7.98926959907982      0.63326484151839
  H           3.81273297107454      6.39144273394314      1.16578398662087
  H           0.26039387833636      7.01212948172447      0.13575275040246
  H          -0.23815487686226      7.78586572605870      1.65591355061915
  H           0.92703960463890      8.57575077305534      0.60339791427145
  C          -0.29889433983044      3.47593286757794      3.41674196327752
  C          -0.53503193464789      5.86675637542937      4.03414996021101
  C          -1.46783253635490      5.04535449989006      1.87151702066685
  H           0.32650844578621      3.39787682457699      4.30320346378151
  H          -1.30628199180023      3.16192127970190      3.68859542269948
  H           0.08724282222526      2.77902600287619      2.67061892101073
  H          -0.71156849932946      6.88259402825358      3.69190749352381
  H          -1.41871991545383      5.54849666177390      4.58793851307290
  H           0.30603453237286      5.86203133895258      4.72377077518268
  H          -1.60228707420119      6.07564689346690      1.55564534952276
  H          -1.27122647411012      4.44241563718121      0.98524825412696
  H          -2.40185211924451      4.70741614260250      2.32041415498276
  F           4.11195414059800      3.69574651066351     -2.44511846057807
  F           5.24989043617624      2.96742788732857     -0.74639094801206
  H           4.98062744673063      1.89553919281469     -2.40322046975839
  F           2.32996999787353      1.53599014887427     -3.52021169272267
  F           3.50201182759793     -0.04443278301120     -2.60351728188025
  H           1.54675778197960      0.17622712836497     -2.28423710754807
  C          -0.36784686354985      1.69068255808947     -0.10198145622770
  O           0.48841295918382      0.57683253544049     -0.20682456561678
  C          -0.90461779767391      2.01336927946731     -1.48105215511799
  C          -1.31046766140909      3.29767666794592     -1.81509775301138
  C          -1.81623379976129      3.56903949229754     -3.07327916596912
  C          -1.93251178003779      2.55622592541941     -4.00906742883003
  C          -1.56191932339908      1.26660614260828     -3.67187037859368
  C          -1.06079793699055      0.99419122584907     -2.41212810807732
  C          -1.54057102948831      1.37880505194756      0.83161266726872
  H          -1.23244051965331      4.09923223161260     -1.09234551887312
  H          -2.11172060400238      4.57672299133425     -3.32278107962481
  H          -2.31432645231508      2.77093803882538     -4.99552988452066
  H          -1.66146985008304      0.46751303179615     -4.39116776741521
  H          -0.78346246934101     -0.01432569657379     -2.14494066203407
  H          -1.19016134058223      1.08581872602444      1.82077693238310
  H          -2.10805584482639      0.55188771347752      0.40710372471886
  H          -2.19965496879195      2.23668935593870      0.92739387472809
