73
Coordinates from ORCA-job TSA2R_3R E -112.862487671450
  Ru          0.38364456361629      0.78230670526847     -0.61272121498564
  H           0.28420433028505      2.29248311278074     -0.57174358699298
  N           1.63229743370357      0.97377678016825      1.08662519100536
  C           1.12849185962662      1.36812353228088      2.26306582442366
  C           2.96585018672416      0.72974486097945      0.97850234731145
  C           1.89481647586260      1.42504459296122      3.41348539075903
  C           3.77846954658523      0.74049414784169      2.12943540815391
  C           3.24193787028007      1.07528655342933      3.34535212531320
  H           1.45340946905659      1.74741764285764      4.34291752833332
  H           4.82457542660886      0.50077634729129      2.02412512093111
  H           3.85495519575892      1.09544458052271      4.23352095104380
  P          -1.26143430314193      0.83989181485145      1.02086783866326
  C          -2.79500746767893      1.92618841264918      0.75200901309641
  C          -1.73112594984101     -0.70929412721947      2.03852613585276
  P           2.41873081046238      1.04527094504425     -1.61768949131470
  C           3.30207360682551      0.58023710319874     -3.20960757567730
  C           2.90642009738065      2.86904806720093     -1.73843694761401
  C          -0.30789157474606      1.79868968514757      2.28179524490276
  H          -0.33998657230599      2.83913845466481      1.93711951747953
  H          -0.73229426672170      1.74394230685793      3.28655317821023
  C           3.50258359416063      0.42684760203374     -0.31454823723931
  H           4.57369302058769      0.56020846648685     -0.43869888281296
  H           3.13160059179603     -0.85102666915984     -0.77968593699455
  C          -0.62961116522835      0.77300472481478     -2.15992958471703
  O          -1.19044185527381      0.84585680676410     -3.16052492973157
  H           0.67595713307672     -0.98050655708236     -0.63808181221665
  C          -3.36932324790084      2.56211583467445      2.01906724652748
  C          -2.37383125701829      3.05852657773590     -0.18857984624772
  C          -3.85939660505633      1.09467556785131      0.03547514907367
  H          -2.62925090614189      3.17702023954439      2.52461596091595
  H          -4.19628585514067      3.21153812771881      1.73390123901734
  H          -3.75639345831289      1.83105212946321      2.71883668380177
  H          -2.03107811555575      2.66537326446820     -1.14421523202817
  H          -3.22442030563049      3.71320332145720     -0.37193116312678
  H          -1.57308253649887      3.66008485522818      0.23658629904952
  H          -3.41272486472527      0.56379864625161     -0.80610618068019
  H          -4.33283435425419      0.37946391912673      0.70370822216023
  H          -4.63735352994683      1.74861957347810     -0.35551175045374
  C          -0.42186736419138     -1.22361553762380      2.64740384941538
  C          -2.73330182478410     -0.48391721799479      3.16746286297113
  C          -2.26631495990543     -1.78496613067738      1.09304931300106
  H          -0.11168967608459     -0.62637548391611      3.50187521012976
  H          -0.55126358091314     -2.25061137238304      2.98775904145621
  H           0.38073886170977     -1.21654358064579      1.90922729750243
  H          -3.73459035762987     -0.30790293945229      2.78466414049889
  H          -2.77179203318649     -1.38200398622407      3.78422877979075
  H          -2.44170275606811      0.34352938501441      3.80996346933492
  H          -3.15864779130781     -1.45918600091500      0.56675597163086
  H          -1.51062178234416     -2.05287323839079      0.35851707587873
  H          -2.51809700624525     -2.68188749077800      1.65880825787246
  F           2.00118894505448      3.56460166820607     -2.45655639765729
  F           2.86969335589090      3.37436547371060     -0.47576745641071
  H           3.91048817638843      3.07013802371512     -2.14908924957986
  F           2.84369963973609      1.37043265057816     -4.20555266316877
  F           4.62191021753654      0.87616499478680     -3.06988678429757
  H           3.20356633293924     -0.47203937537449     -3.50018650124230
  C           1.25717325802066     -1.90124913320974     -1.09995752744624
  O           2.45999470260442     -1.50708538596127     -1.61138232544351
  C           0.40665025364834     -2.49167534200534     -2.20795871675469
  C          -0.94363192615714     -2.21972083252610     -2.36178680148170
  C          -1.66530005779721     -2.80070835868462     -3.39001258145805
  C          -1.04305116200179     -3.66011851619577     -4.27764334044733
  C           0.30694324943718     -3.93270858816932     -4.13435250398468
  C           1.02593820751694     -3.35418636399654     -3.10594683226460
  C           1.43065989905619     -2.93849584372166      0.02181128238395
  H          -1.44196673046734     -1.53529976920593     -1.68539312451752
  H          -2.71521027843781     -2.57265636415333     -3.50021976190792
  H          -1.60572896145761     -4.10907167128938     -5.08263805489785
  H           0.80289992114854     -4.59526955883408     -4.82844003477914
  H           2.08254728770615     -3.54756177494424     -2.99672143054079
  H           2.02337033493525     -2.52431795724669      0.83712894322837
  H           1.96686720408851     -3.79203393704713     -0.38860119611384
  H           0.47050538028412     -3.27901839407686      0.40135854610705
