73
Coordinates from ORCA-job TSA2S_3S E -112.864652505430
  Ru          0.23778802827451      0.75321310519211     -1.22749596992735
  H           0.20060155982760      2.26504411412447     -1.38987592915989
  N           1.51501853342254      1.07762125594090      0.42278343438155
  C           1.04458643349741      1.56447360720310      1.57662325770445
  C           2.82322952306908      0.73279808906859      0.32201616059186
  C           1.82965968039348      1.64793994314808      2.71460717864548
  C           3.65554439820426      0.78376747225411      1.45391318894141
  C           3.15497474436835      1.22870111503122      2.65237673284041
  H           1.41655932292069      2.04361849352602      3.62857725521936
  H           4.68477224654714      0.47693068044631      1.35576763531648
  H           3.78226085303333      1.27356307092795      3.52952298137576
  P          -1.37776411391585      1.09999129350694      0.37654271508879
  C          -2.82764633374977      2.26704152604082      0.02149118730975
  C          -1.97469196427075     -0.36834176292436      1.43009664684315
  P           2.24882972367156      0.82034169309843     -2.29782345064895
  C           3.05133339168322     -0.00176219414168     -3.78715612373457
  C           2.89154775051576      2.54789707335978     -2.70781721852719
  C          -0.36672406531137      2.07162327755207      1.58062855341986
  H          -0.34725740899498      3.09320002182300      1.18212271572950
  H          -0.78965872730481      2.09238881555146      2.58747359411388
  C           3.31038539718247      0.26918250105541     -0.95191108899011
  H           4.38621032937430      0.31797555639971     -1.10321851239980
  H           2.91007660273211     -1.02582043397656     -1.19955004795852
  C          -0.89556274448770      0.51298108716620     -2.66516485361986
  O          -1.61489754659001      0.38744451605274     -3.55470881660238
  H           0.52756012558291     -0.98016093191096     -1.05305398956958
  C          -3.34165657209832      3.01975160106079      1.25003619629639
  C          -2.34009504679383      3.29947243456047     -0.99756896207633
  C          -3.95112515694704      1.46103254867032     -0.63159448516916
  H          -2.58049415450262      3.68295651849907      1.65333136585840
  H          -4.18902524418211      3.63523294465669      0.95009541338264
  H          -3.67950010084331      2.35621249011599      2.03751737522267
  H          -2.05461689758882      2.81741214976807     -1.93107924023538
  H          -3.13932418696990      4.00915735864509     -1.20570733754949
  H          -1.48224831328340      3.85811961359120     -0.62858807726813
  H          -3.54471629372531      0.82302116002512     -1.41654637573187
  H          -4.48296248451534      0.84704472484170      0.09042892068021
  H          -4.67266656321517      2.13741668175673     -1.08724592197165
  C          -0.71213708639684     -0.92514508076539      2.09473025036240
  C          -2.99644333121361     -0.07455289637425      2.52425675008061
  C          -2.52770895008747     -1.41521083376695      0.46158964082416
  H          -0.90172043972934     -1.92463199776870      2.48391021859821
  H          -0.38632495584123     -0.30003889441935      2.92361668633301
  H           0.10650548341255     -1.00856489653147      1.37935396134488
  H          -3.96362300441144      0.20390019901446      2.11593536242843
  H          -3.13817725224688     -0.97854161587233      3.11657825642285
  H          -2.65051349145867      0.70831400496836      3.19606090372196
  H          -3.52063735563932     -1.15147879217516      0.10891378335393
  H          -1.86967432054137     -1.50614266307332     -0.40433629280782
  H          -2.58710507771812     -2.38669750126484      0.94989713885736
  F           2.04456556241661      3.19702354376510     -3.52996311141227
  F           2.90541919273026      3.23634332396435     -1.53499038329675
  H           3.90662826613603      2.59404538678404     -3.13670639996859
  F           2.53692004417608      0.54229079042680     -4.91319575827711
  F           4.37655215276498      0.30306297803429     -3.78658527182296
  H           2.94313525301146     -1.09348033132700     -3.81796216711391
  C           0.99204367574677     -2.06534314657005     -1.39187405374876
  O           2.26163736121347     -1.92487964175908     -1.82324207378018
  C           0.88825074576694     -2.93438456804480     -0.14895229125245
  C          -0.12377688554363     -3.86868427769641      0.03646693911216
  C          -0.15905544748759     -4.64988883164535      1.17898212186929
  C           0.81221705829314     -4.51253996224929      2.15461539664758
  C           1.82805932930717     -3.58906809572626      1.97704020589267
  C           1.86492698884979     -2.81025249173229      0.83616074075098
  C           0.10887505578892     -2.53705807840995     -2.55404256944888
  H          -0.89066193442870     -4.00456189798515     -0.70906929858502
  H          -0.95136743073868     -5.37426056549870      1.30366912705115
  H           0.78128051534531     -5.12412331321999      3.04433886452021
  H           2.59615578462413     -3.47463050241230      2.72789596754914
  H           2.66728330190235     -2.09805253073176      0.70628903894701
  H           0.30522175397287     -1.90101413100222     -3.41713219775688
  H          -0.95204457607789     -2.49261433564035     -2.32133518848551
  H           0.38698928909169     -3.55762156500181     -2.81076040473269
