17
Coordinates from ORCA-job NEB E -30.719598059970
  C           0.60504446527952      0.32707968328279     -0.16604535209933
  C           0.63173751593522      1.79997003931094      0.24071277382430
  Cl          0.02077010121186      0.86806015584964     -2.75961809049007
  H           0.98156120062722      0.06094911566309     -1.15586448391751
  N           1.37333088017001      2.56614862155129     -0.57302843664169
  C          -0.43177971504874     -0.47565872432811      0.47764917079648
  C          -0.91131652496297     -1.73564570621408     -0.06015687830098
  C          -1.95265340853285     -2.38505050730281      0.45704118309964
  O           0.07367751462372      2.18005232778133      1.24356685679847
  C           1.07418532489540     -0.58565880236883      0.96321120571709
  H          -1.06929928801831      0.04390367798613      1.18990176622052
  H          -0.39148831891272     -2.11543961264556     -0.92909303273013
  H          -2.47236338633187     -2.02057779308386      1.32769632597070
  H          -2.32031691524152     -3.29725501238694      0.02108348101510
  H           1.34066061005740      3.56264319320751     -0.41780997225196
  H           1.55423609559776      2.24579259620738     -1.51446394528753
  N           1.89401384865092     -1.03931325251000      1.65521742827691
