17
Coordinates from ORCA-job NEB_product E -30.811017017590
  C           1.03033280919648     -0.40597561773627      1.60121000886320
  C           1.46511490696223      0.82983970182119      2.40178941925919
  Cl          1.90170898021765     -0.55338653328021      0.04784526860395
  H          -0.03386334408494     -0.31485956540672      1.36965159291765
  N           2.73061482850377      1.22714463044440      2.21319988260155
  C           1.25291493404996     -1.66098892219988      2.47100220297480
  C           0.71339082263776     -2.90661005363146      1.81658330058154
  C          -0.22823241484933     -3.65719701470990      2.35335992539124
  O           0.69320904264765      1.34692772957633      3.17556360663516
  C           2.66778240714234     -1.82750233027299      2.72656479497360
  H           0.74564428377338     -1.49053755781525      3.42932272287510
  H           1.15581065054115     -3.15188352268382      0.86153870831411
  H          -0.67261126248011     -3.42378515398114      3.30734775585581
  H          -0.59429405385606     -4.53986862400724      1.85857918676981
  H           3.08265263811914      2.00044119855356      2.75260314607872
  H           3.35040490473108      0.74129971469751      1.58645618441580
  N           3.78861986674788     -1.95685807936812      2.90578229288877
