17
Coordinates from ORCA-job NEB_reactant E -30.779421828680
  C           1.48431847261151     -0.44783751130602      0.39771830530463
  C           0.99184902310669      0.26778962877250      1.41617071522497
  Cl          1.12685893991521     -2.09539966602974      0.00517565989821
  H           2.18947760557049      0.00026040262914     -0.27985525253377
  N           1.39352514460121      1.58367160429962      1.60811687286441
  C           1.70324376973522     -3.26770124425695      3.11628546286134
  C           1.36169599435928     -1.98678834105645      3.23629777039465
  C           0.03564612327498     -1.43603541430219      2.82136650033094
  O           0.11534228522972     -0.08715015245467      2.39592419448486
  C           2.95285333794375     -3.75704930348247      3.54108600019509
  H           1.03550648406830     -4.00097038443312      2.68281038488526
  H           2.05161287438702     -1.26746978530647      3.65816645988274
  H          -0.62897030799749     -1.39146533190599      3.69388321427108
  H          -0.43581392313539     -2.06545788904168      2.05901567265356
  H           0.76686115513636      2.09510797481374      2.21171280127148
  H           1.66008225694714      2.08671331286963      0.77731125754554
  N           3.96591076424601     -4.16711789980889      3.88811398046500
