18
Coordinates from ORCA-job NEB_reactant E -29.599975418370
  C           2.39764825705321      0.26127579077104      0.72392061213483
  C           1.49874695306623      0.11103600643944      1.69496425476149
  Br          3.67660101316153     -0.96403831370265      0.03096513124037
  H           2.46200563462426      1.20136113052141      0.20470565676525
  C           0.59664259268641      1.27099344270306      2.03152964828162
  C           3.72975147661327     -0.95230225880669      3.78579909063442
  C           3.34418279525797     -1.96619684507096      3.02482939857373
  C           1.94821024117449     -2.12788234862971      2.49733038772941
  O           1.19073812669831     -0.93235416968511      2.49654963376893
  O           4.97427649368139     -0.75428085640229      4.27376338338106
  H           3.05770569371930     -0.16381740322041      4.09276185931628
  H           4.04020823980910     -2.74061511220151      2.73451884197042
  H           1.37326660027469     -2.79764404243915      3.14914807982854
  H           1.97097360957994     -2.57644505683026      1.49762378421556
  H           0.83611273090026      1.63838465052805      3.02787517995130
  H          -0.43512220532654      0.92709370891008      2.04299517608113
  H           0.70223300579194      2.08027283385144      1.31754529951100
  H           5.56141874123423     -1.45774115673580      3.96817458185466
