18
Coordinates from ORCA-job NEB_product E -29.601019216640
  C           2.90915208415570      0.44302839204784      2.46489768912457
  C           1.38914551222733      0.45362134814599      2.57108840904101
  Br          3.53845209403887      0.69019674562686      0.63794876890927
  H           3.29490946270488      1.31243015829631      3.00870542233294
  C           0.65466667125198      1.31907730339368      1.59399241191135
  C           3.53856369351549     -0.81414740070077      3.07851904724942
  C           3.25378806319761     -2.03231389123902      2.24409916991395
  C           2.30827457448285     -2.90767028290287      2.52509154635738
  O           0.84164975185875     -0.18402471889155      3.43332054726430
  O           4.92035116612334     -0.55190823852128      3.19660506953209
  H           3.08433202485244     -0.93608437842275      4.07640840729742
  H           3.88565558992762     -2.13959919323983      1.37183867522785
  H           1.67319289110982     -2.79551710735071      3.38811223466127
  H           2.12196451075105     -3.75873482098262      1.89295114925101
  H           1.15965589736061      2.27171057168679      1.45185215902438
  H          -0.36348547390992      1.47609956977066      1.94108074507938
  H           0.62153002269912      0.81317040050282      0.62910986575858
  H           5.37980146365246     -1.36813445721955      3.41797868206382
