23
Coordinates from ORCA-job NEB_reactant E -40.085630823320
  C           2.01123096884766      0.09056399274626      0.30135264258820
  C           1.55992736808219      1.33026078269155      0.56672740850653
  C           2.43895253458082     -0.87434747635360      1.21882986915889
  H           2.02413313780907     -0.21803342476604     -0.73739069076769
  N           1.12033276363194      2.14610565782471     -0.58725579600426
  C           4.28415858785344      0.76405501467798      3.36560665407151
  C           3.45954913586880      1.68819460092397      2.90309133864303
  C           1.96433924321994      1.56585108350744      2.90726334924626
  O           1.39786158583603      2.02191171504760      1.67885056708469
  C           5.77201445058068      0.87637033109261      3.36509409015596
  H           3.89040485792119     -0.16419854240057      3.75799289937703
  H           3.83182060232199      2.62074700282583      2.49993396185281
  H           1.52673422188920      2.23780763398061      3.65251998239386
  H           1.64973216624556      0.53900019961659      3.11759278167647
  N           2.79154280666636     -1.70913031819298      1.92411182674337
  O           0.78046101257914      3.27574205923963     -0.35285091245054
  O           1.13733017246456      1.61806027237902     -1.67501638223032
  C           6.38964872123155     -0.23824052153599      2.52020258796022
  H           6.13455275154800      0.78606664881137      4.39233995626135
  H           6.07707280596983      1.85056953470767      2.97933507596652
  H           6.07431233974065     -1.21176528567170      2.88682515783458
  H           7.47463834105470     -0.18528408476972      2.55769491932647
  H           6.07264942405672     -0.14680687638224      1.48394871260507
