23
Coordinates from ORCA-job NEB_product E -40.082056670750
  C           2.79802784552261      0.15789136725414      1.25671344597578
  C           2.46633271059190      1.40455803664895      0.50605490253305
  C           1.58470287155851     -0.58019327400579      1.53299653861470
  H           3.46273404122138     -0.47070764552462      0.65198051563315
  N           3.35215030053015      1.59446110542584     -0.76855167064135
  C           3.50037717847337      0.50160526179835      2.61273656921785
  C           2.56133270167344      1.25703958400447      3.50692143069426
  C           2.04999759157546      0.75826191761391      4.61649692553194
  O           1.68179346086006      2.26015158903701      0.72645787905480
  C           4.79342649690167      1.29656899998193      2.38466038492393
  H           3.74873642072138     -0.45575356379167      3.08356789236710
  H           2.31557944953592      2.26142983081461      3.19088015530424
  H           1.38196327779008      1.32844034162713      5.23746649302494
  H           2.27703550705499     -0.24126541904943      4.94986959267018
  N           0.64347342783253     -1.18302771861482      1.76186907517160
  O           3.24834811368314      2.66114510180939     -1.30478953427699
  O           4.05707202273618      0.66979454666614     -1.09812920745529
  C           5.88315127069122      0.50159197930456      1.67309028211332
  H           5.16222655316919      1.59692248901424      3.36832818599631
  H           4.57389359310865      2.21301206596751      1.82948184161202
  H           6.07069986557869     -0.43541923819297      2.19310019222275
  H           6.80703477191471      1.07418966704306      1.66368657755497
  H           5.62291052727478      0.27860297516805      0.64111153215675
