23
Coordinates from ORCA-job NEB_reactant E -32.610450545450
  C           2.08485648012432     -0.10789293278523     -0.01950988745999
  C           1.93122100214518     -1.42996383170873      0.06853434396688
  C           1.97976864530362      0.79285739944494     -1.21345622587327
  H           2.30495647451399      0.36826854383649      0.92289169830674
  O           2.06487443420230     -1.97964571828172      1.31816346237419
  C           4.35750278041975     -2.11016205725148     -1.74580798128636
  C           3.33795787203612     -1.87812455964675     -2.56765853895369
  C           1.89821257156242     -2.14394514121776     -2.23722564557694
  O           1.63618681049041     -2.37342452554400     -0.86801645567909
  N           5.69183783461703     -1.96331115765479     -2.07417202849417
  H           4.19306841726571     -2.50062102033141     -0.75196850189850
  H           3.51003187255514     -1.49993044280879     -3.56591068230153
  H           1.56541021664411     -3.07328319452016     -2.71909130951129
  H           1.27022474816322     -1.33001105864588     -2.61888689993145
  H           0.96572522022343      0.81313766347057     -1.61465990461084
  H           2.65870897426103      0.49151881351909     -2.01128112758191
  H           2.23709040138306      1.80649885390889     -0.91729327488076
  C           1.80796994560409     -3.36043498732673      1.45697142231011
  H           1.95387550549431     -3.57522513699025      2.51411776966233
  H           2.49820113142381     -3.96161180801072      0.85814040059192
  H           0.78370029581269     -3.60683649903041      1.16586444691523
  H           5.86463761549619     -1.42467727007411     -2.91033782225315
  H           6.30228075025806     -1.71997993235106     -1.31020725783446
