21
Coordinates from ORCA-job NEB_reactant E -41.844432776470
  C           1.45808161320897      0.26860420087681     -0.03714162426143
  C           1.23893348842452     -1.03756076179396     -0.24569851832418
  O           1.35506963711426      1.18367011585293     -1.01561071626657
  H           1.75305604442115      0.61565335309924      0.94606692836593
  C           1.32328329264485     -1.99671196199302      0.91377575016927
  C          -0.59744498894657     -3.86849598022399     -3.59280243636011
  C          -0.36922479904222     -2.68940071338659     -3.04831505055199
  C          -0.10449023175505     -2.47480990683637     -1.59119305469851
  O           0.98087914541832     -1.55184986363633     -1.48252135008300
  H          -0.80270615434735     -3.97660815092828     -4.64349078648398
  H          -0.59964387402171     -4.77376805465341     -3.00823638203990
  H          -0.35768688562326     -1.78461747610757     -3.63822707649828
  H           0.13645517024038     -3.42542350831371     -1.10000542140409
  H          -0.99882739323711     -2.04748986971139     -1.11277323184544
  C           1.77325006575241      2.48954024101922     -0.67971950427132
  H           1.56303880672985      3.10756230664400     -1.55013727337744
  H           2.84552349739948      2.51793379463697     -0.46405732404231
  H           1.22164851574011      2.87456963797897      0.18348636037733
  F           0.10871147534519     -2.35954662199727      1.38736696460894
  F           1.94944403866067     -3.13875941529492      0.60118681195093
  F           1.97654953587310     -1.47599136523132      1.96414693503619
