19
Coordinates from ORCA-job NEB E -28.924046825780
  C           0.33999133909170     -0.03517740915166     -1.15996709254620
  C          -0.89578866918216      0.28001912819823     -0.53880849838102
  N           0.64731864261041     -1.33855633863478     -1.52455274339837
  H           0.81548837887353      0.72437282464666     -1.77168184681911
  C          -1.32414278753877      1.72169801484649     -0.43019094873160
  C           1.34821397553285      0.14423118536103      0.56385612248318
  C           0.78419447691207     -0.86530363415283      1.34618886515549
  C          -0.53292695596174     -0.71441535065607      1.77235113682807
  O          -1.43194625185154     -0.60666354531345      0.20744458654819
  Br          3.15739556662806     -0.08004754720388     -0.00684734965466
  H           1.15639452816171      1.18442330410343      0.79402395194709
  H           1.19581735411781     -1.86033400358455      1.25863505107708
  H          -0.86086577278982      0.25164537950682      2.13237680302638
  H          -1.02317382161870     -1.55285262635128      2.24171782312033
  H          -0.05042496641070     -2.01178641142606     -1.24387031453522
  H           1.01847547093002     -1.47524071220403     -2.44831391443096
  H          -1.31952382934266      2.04216005965195      0.61293389268856
  H          -2.34595718929777      1.81965159046170     -0.79249534577266
  H          -0.67853948886430      2.37217609190228     -1.01280017860457
