19
Coordinates from ORCA-job NEB_reactant E -28.953649590650
  C           1.53539055381477     -0.06701747931046     -0.10721060202668
  C           1.57787691348628      0.75275717854810      0.94553777146111
  N           1.37335139909457     -1.44767598413566     -0.02601768154774
  H           1.70390371898163      0.32282928659680     -1.09912623665575
  C           1.79006259113248      2.23336207457762      0.84884205581389
  C           3.81488959629909      1.04108859270725      4.32745797297451
  C           3.59336914262665      0.53494057506494      3.12885442068399
  C           2.45145223343447     -0.39693187779325      2.84080925421991
  O           1.35080628111147      0.26413348369879      2.23652405610968
  Br          5.22873549884797      2.24828223595686      4.68399507192461
  H           3.22555667500720      0.81016158956558      5.20034354128941
  H           4.21296012466227      0.80803028074713      2.28611084167578
  H           2.05127155884027     -0.81246320348934      3.76967364361383
  H           2.80964024108564     -1.21083481590440      2.19563468880519
  H           0.91016169716314     -1.73620287293236      0.82593044863608
  H           0.95343840811774     -1.86326439303843     -0.84387562971681
  H           2.67003325160644      2.53880003317320      1.41488744793498
  H           0.93251416332132      2.75476856174624      1.27297718645921
  H           1.91198595136661      2.53353673422138     -0.18734825165521
