17
Coordinates from ORCA-job NEB_product E -40.973398696980
  C           1.87322186949192     -2.33198833918164     -0.93953375806057
  C           0.44582301734060     -2.65610848977542     -0.63462427132547
  I           1.90140648769504     -0.17159744200526     -0.76993171427701
  H           2.55649245543034     -2.69512987011705     -0.17230279643796
  Br          0.16963129384125     -3.02122669707231      1.26877912767468
  C           2.28804598863985     -2.80052733272480     -2.33646801869308
  C           3.46729356506098     -2.03633049358348     -2.87450791181269
  C           3.47302625213233     -1.45773231473512     -4.05998874804097
  O          -0.47688863699942     -2.64264379930089     -1.37178424309699
  C           2.63115475563027     -4.29601030544270     -2.28133220404690
  H           1.43562220388716     -2.68292116882151     -3.01643329745130
  H           4.32920161303997     -1.99331559261834     -2.22453842315433
  H           2.62219661064674     -1.49706465108512     -4.71986008792174
  H           4.33134968985238     -0.91519902984341     -4.41430885413657
  Cl          1.28269283003494     -5.24328030618431     -1.59020459087629
  Cl          2.95494617396507     -4.89249960457794     -3.92211976084974
  Cl          4.07238383031058     -4.59142456293070     -1.27744044749307
