20
Coordinates from ORCA-job NEB E -44.226642599030
  C           0.54551682154705      0.01799108719222     -0.85898629553377
  C          -0.60147828034696      0.40677958317022     -1.58980720368176
  C           1.24754802013098     -1.21238743061283     -1.36652049272025
  H           1.24278530173659      0.80735693672888     -0.58988875191726
  H          -1.11494575974080     -0.35350275399933     -2.18929647812114
  C          -0.25778896267401     -0.15031237971641      0.87386082180264
  C          -0.87638359110020      1.09747296271028      1.06916873629404
  C          -1.92193229972917      1.47604450638117      0.20264002655846
  O          -1.22614057234246      1.48596926433566     -1.31236200495700
  C           0.81863908776900     -0.49520717835415      1.88351727085264
  H          -0.89972894085834     -1.00575876011168      0.68312715444363
  H          -0.28923381415888      1.87689225794373      1.53495211411510
  H          -2.29049231262785      2.48969851459192      0.28550079920150
  H          -2.70772569355026      0.75065566334278      0.01919700507068
  Br          1.53654356563763     -1.03089828821207     -3.32717541137026
  Br          3.01627596019740     -1.47902244414580     -0.61452284549900
  Br          0.18580506329266     -2.82952869977802     -1.12521556045051
  F           1.24228028994597     -1.77026827551671      1.75064582394338
  F           1.90437165513103      0.30220382877144      1.75608603048298
  H           0.44608446174064     -0.38417839472129      2.91507926148591
