26
Coordinates from ORCA-job NEB E -39.860906177030
  C           0.48145399308847     -0.30687662511801      0.36679823864457
  C          -0.73389513714107     -0.55373416394665      1.01951778509478
  C           1.15090744906398      1.03025724078655      0.58811276738688
  H           1.18080690925241     -1.13894451245185      0.35902140526485
  C          -1.21193620040585     -1.96977240582758      1.25749064386049
  C          -0.19608413166962     -0.24767602810784     -1.43081837291118
  C          -1.15188289969974      0.76891668908402     -1.36705481329824
  C          -2.25913676987992      0.58428583804286     -0.48496436348809
  O          -1.66653007649909      0.36642807387125      0.98969172472945
  C           0.98410272882615     -0.10285342424397     -2.36265643699299
  H          -0.55825657977159     -1.27252150771155     -1.45675315392587
  H          -0.84231074746393      1.77537819635365     -1.60392029092036
  H          -2.82134859196870     -0.33937786125610     -0.61892159463273
  H          -2.91250175392641      1.43929830481150     -0.35640584827047
  C           1.90486562710119      1.00872921565720      1.91608004063591
  H           0.39244656592435      1.81290843689086      0.61485554531511
  H           1.85178923941572      1.25306422466389     -0.21454511560247
  H           1.21579350953476      0.83389654267959      2.73897765433704
  H           2.40494324773166      1.96062788481782      2.07656377699903
  H           2.65454440107944      0.22008432911462      1.92206281768940
  F          -0.18703454156788     -2.87741419990491      1.19899692799656
  H          -1.94657129086880     -2.26762610740925      0.49268206222001
  H          -1.67475500616915     -2.05854305355913      2.24628184528539
  F           1.36502141351356      1.20332729182126     -2.53302856721445
  H           0.71285325378348     -0.47556302300347     -3.35834339504502
  H           1.86271538871658     -0.64629935605479     -1.99972128315760
