26
Coordinates from ORCA-job NEB_product E -39.900723501620
  C           1.98061866639415     -0.68615620829989     -2.07268167788708
  C           0.67232877247513     -1.46142583445995     -2.02491821942268
  C           1.80452805458711      0.53397166580615     -1.14696800384939
  H           2.79359811756338     -1.31220188573420     -1.69488696178453
  C           0.77825284100097     -2.75144816506019     -1.22863349493419
  C           2.28026231953957     -0.29913021166368     -3.53507395893598
  C           3.59501788934095      0.40784466662815     -3.67761186293993
  C           3.73935995635824      1.59537295205851     -4.23468269760226
  O          -0.34063297560738     -1.08836271940823     -2.54990638076080
  C           2.29509668070871     -1.56181780413872     -4.40869001085160
  H           1.47006769585687      0.33625042773637     -3.90456974261516
  H           4.45354404347160     -0.15017258577247     -3.32799169082384
  H           2.89485168275587      2.15862423704061     -4.59679446672211
  H           4.70461304534671      2.05914966734167     -4.34522283353606
  C           3.11990610786639      1.05691686222923     -0.58507275794661
  H           1.15876486132721      0.24766845913182     -0.31222148510234
  H           1.29196703259945      1.32399944301052     -1.69692649161651
  H           3.63469667430604      0.27860562213922     -0.02579349265979
  H           2.92778898139241      1.88934703642314      0.08741851021780
  H           3.77226662612033      1.40128901495185     -1.38184955058610
  F          -0.42903650873278     -3.37334445080910     -1.08918830347242
  H           1.16487444315680     -2.55027339000924     -0.22303818271486
  H           1.45051390497120     -3.44384679509483     -1.75066016341114
  F           3.12381276462915     -2.51899883126466     -3.86857980802190
  H           2.67737773060987     -1.34162211718994     -5.40993715989730
  H           1.30076059196204     -2.01203905559215     -4.47951911212321
