26
Coordinates from ORCA-job NEB_reactant E -39.884868614240
  C           1.56150320259983     -0.11216654976356     -0.15143216571298
  C           1.39450224113391     -1.12579558179857     -0.99472107710329
  C           1.73768289277504      1.35480541520302     -0.40244043139829
  H           1.55945974092564     -0.37614632240586      0.89710144601032
  C           1.15924573884161     -2.53872964350800     -0.50463030126176
  C           2.50148791314167     -0.49218082654583     -5.57113171964356
  C           2.64417557521988     -0.94791301138060     -4.33870917444738
  C           2.14871393237899     -0.23999098443293     -3.11501507969970
  O           1.36857261107481     -1.15594146312145     -2.36496032721758
  C           3.00672920108848     -1.18465586939938     -6.79558980252930
  H           2.00309340090909      0.44593474817882     -5.77345262257222
  H           3.13412358361731     -1.89383090119764     -4.15758809621888
  H           1.54519066073634      0.63045728156287     -3.40246557156287
  H           3.00673783128542      0.09625301104837     -2.51945795776447
  C           3.14531188251085      1.82086014683323     -0.02494139027985
  H           1.01804250456475      1.88568508436250      0.22740959158295
  H           1.52293698552026      1.61880710113624     -1.43640500252851
  H           3.35668893001890      1.57844456159230      1.01390740353785
  H           3.23638635409024      2.89683652443330     -0.15483745988282
  H           3.89529546110170      1.33462764815589     -0.64626777575151
  F           0.84384272287201     -2.58746154908436      0.82555369918852
  H           2.05828251541989     -3.15163256908638     -0.64344099268141
  H           0.32672022228380     -2.98389086184053     -1.05941454241149
  F           3.68245149543864     -2.33942965196000     -6.49778597310667
  H           3.70495937382929     -0.54303491840408     -7.34838525370242
  H           2.17596302662165     -1.46501081857737     -7.45589942284266
