17
Coordinates from ORCA-job NEB E -37.369419223480
  C           1.06299533744852     -0.38654817128140     -1.33013277608278
  C          -0.17923840855598     -0.65372310401272     -0.94651542877366
  H           1.90605237881722     -0.45458911164877     -0.66916960653271
  H           1.26841273644933     -0.10182096689354     -2.34331326506786
  C          -1.33506958841207     -0.50392560534728     -1.91269969508534
  C           0.77333652929384      1.56535105355326      1.52344618560938
  C           0.03251515986015      0.55513892442064      1.93672213022685
  C           0.19307586728024     -0.84875486613548      1.41650371072658
  O          -0.62829054985584     -1.03607468701490      0.27072848560437
  I           0.47905416821824      3.53877133737468      2.17855407209424
  H           1.57764444932973      1.47428040478766      0.81419570200429
  H          -0.78424048560917      0.71277871231691      2.62492240619083
  H          -0.18601651254631     -1.56420512107885      2.14988551420551
  H           1.23839172797658     -1.08315866062628      1.19649813887595
  Cl         -0.91586687939430     -1.07737995747014     -3.53233861689705
  Cl         -2.77002464591476     -1.37544410336953     -1.36201071554331
  Cl         -1.73273128438541      1.23930392242573     -2.01527624155527
