17
Coordinates from ORCA-job NEB_reactant E -37.371291893210
  C           1.82460452144538      0.29039033773662     -0.03749425216465
  C           1.72796003717129      1.50205105304576     -0.56787526733486
  H           2.14769926530189      0.13311680048349      0.97402888092834
  H           1.58052818530691     -0.58331847245431     -0.60814856274944
  C           1.27889734365514      1.77622790731095     -1.98160073831231
  C           2.20273750271095      4.64481244118346      2.85644745497123
  C           2.70555334480727      4.09557253689484      1.76877605248883
  C           2.44027765011437      2.67588334987390      1.37342888954014
  O           2.00109238931230      2.68885713768208      0.02734496585109
  I           2.60154776721512      6.62272194509860      3.42937372293326
  H           1.56639425995451      4.12010779648578      3.54935030566054
  H           3.33095578162185      4.64953023221950      1.08482256385136
  H           1.67852392657958      2.22099260057475      2.01987164896213
  H           3.37027294715601      2.09239950600564      1.45264157424446
  Cl          2.57422011254220      2.64625871771973     -2.84360925580569
  Cl          0.88921684524778      0.31900070709743     -2.88872399169571
  Cl         -0.16818188014256      2.81779540304176     -1.93863399136872
