21
Coordinates from ORCA-job NEB_product E -37.624124640660
  C           3.36033179724499      1.38598249482844     -0.35158101212897
  C           1.95106183245622      0.99814119087460     -0.64644307897381
  H           3.89758784516451      0.50436813752913      0.00068941060155
  H           3.84232457871869      1.78755357265534     -1.24410989521626
  C           1.12405120041446      2.04043322773259     -1.44225140401010
  C           3.40638942488974      2.49558243367294      0.74855578291445
  C           2.68958878443710      2.00761589600043      1.97814367203835
  C           1.71990860449479      2.68084727754737      2.56647912898617
  O           1.42113316178471     -0.01983717668256     -0.29171151225276
  O           4.73344666895830      2.91910718130033      0.96837482157995
  H           2.91355725317372      3.39535374556244      0.36545852423347
  H           3.00381790443965      1.04399144891739      2.35579095425211
  H           1.38506059143716      3.63431647325120      2.19373892330155
  H           1.21513498726745      2.30065429748992      3.43802821652818
  F           0.62660695623711      2.97360371862410     -0.59406765494334
  F           1.88584427310894      2.70571766235908     -2.33959183385843
  H           0.28004128152666      1.57253053032005     -1.97058904407627
  C           5.55553850232134      2.08830360771420      1.75592969315547
  H           6.54350816761546      2.54396126870398      1.72307223640645
  H           5.62110649586097      1.07049128786396      1.35863097728614
  H           5.21235968844799      2.05028172373505      2.79465309417613
