20
Coordinates from ORCA-job NEB_reactant E -47.168925601450
  C           1.40307985707981     -0.52693107076377     -0.27143825385749
  C           1.95699155420332     -1.67063223810957      0.17211163165422
  C           2.05751000372199      0.65047147624857     -0.88291276758125
  H           0.32942371404964     -0.43778408455895     -0.17302158395381
  N           3.39656155442536     -1.95042754349162      0.11440514618783
  C          -0.96270810856592     -4.09970237092829      2.72335135473979
  C          -0.46644352297472     -4.00569106980265      1.49498849881759
  C          -0.08429569845979     -2.70734647543579      0.86799910509570
  O           1.33728650754952     -2.70761034315460      0.71376077311743
  O          -1.31469564882023     -5.23111221052099      3.34920676701084
  H          -1.15900421229379     -3.23210174049593      3.33843502433418
  H          -0.26814225507823     -4.88887308121667      0.90531404213613
  H          -0.38490328155055     -1.86725747790721      1.50480721593917
  H          -0.54576141318027     -2.59957047935763     -0.12307458980396
  Br          0.68744751709264      1.97194485997286     -1.33461069384097
  Br          3.30725579718708      1.55011712326011      0.34529885145855
  Br          2.98476188496920      0.22397768796666     -2.56564945913874
  O           4.09754944051208     -1.07198326567625     -0.33600799038762
  O           3.76608071316093     -3.02123925551257      0.51455019440676
  H          -1.11249440302809     -6.00114844051572      2.80078673366566
