17
Coordinates from ORCA-job NEB E -39.971600331730
  C           0.77805984988501      0.47840339275592      0.87691967948259
  C          -0.60280714422504     -0.00113458991674      0.88754275586335
  I           0.86405421895262      2.57559455323853      1.38008754455222
  H           1.43962762845740     -0.03757087301059      1.56956046647726
  C          -0.94439538867798     -1.28162064990127      1.45632947143772
  C           1.32974864244242      0.25570583382844     -0.62741781300736
  C           0.40012475672276      0.87371578776857     -1.55066951656870
  C          -0.95536894532243      0.45676634074145     -1.48133999166775
  O          -1.43163749886659      0.51857206831185      0.03839777593263
  Cl          2.97754335396327      0.89860557629544     -0.73576145958743
  H           1.39113912903531     -0.83460395290602     -0.72362539483314
  H           0.65375020237044      1.83275406488513     -1.97421738849730
  H          -1.13235040899629     -0.60586677324454     -1.66142559830508
  H          -1.67019417290588      1.08098898820624     -2.00708341803730
  Br         -0.08045951005076     -1.76358824146064      3.08154185629356
  Br         -2.82064147197281     -1.59716090793234      1.52562101522228
  Br         -0.19619324081144     -2.84956061765942     -0.05445998475753
