17
Coordinates from ORCA-job NEB_reactant E -40.000895090890
  C           2.27598611189241     -0.41442020330191     -0.29230868788373
  C           1.70799207736375     -1.38974288746646     -0.99479559512719
  I           2.77229556444649      1.55013989958507     -0.82982131894346
  H           2.53767144425029     -0.59025808860427      0.73615240266197
  C           1.40588999351384     -2.72613872674370     -0.36351327490789
  C           3.79140707714359     -1.09597643380810     -3.51490245048706
  C           2.80836896735373     -0.22387901155110     -3.66955841122356
  C           1.39683155968474     -0.46813103302792     -3.22292587780615
  O           1.25974536612365     -1.49963704171490     -2.26471516715734
  Cl          5.39325989103932     -0.78470205812149     -4.03983406361918
  H           3.66962429818369     -2.06555148692218     -3.05585086526686
  H           2.97733440714934      0.72607220440747     -4.15295660714826
  H           0.79968069618659     -0.82730368626782     -4.06947975277314
  H           0.94127441651239      0.45897894205684     -2.85973703555298
  Br          1.95937648918821     -2.96706195858723      1.46500377653884
  Br         -0.53225744603699     -3.00661364609511     -0.45279027213936
  Br          2.26211908600498     -4.11967478383721     -1.43596679916463
