19
Coordinates from ORCA-job NEB_reactant E -45.083942342890
  C           1.99850373878020     -0.39433949851543      0.47951386776884
  C           1.34006823048357      0.68412947272704      0.94173246476852
  N           2.20004801762157     -1.65938021586278      1.08334377392360
  H           2.48162102836027     -0.32168547336822     -0.48277374766089
  H           1.24820738901786      1.52230636002846      0.25606498897186
  C           2.97816178451818     -0.91218558019990      4.18531556908886
  C           2.40189000545308      0.16853162652726      3.68592450415842
  C           0.96394070393565      0.23047107759605      3.27072043801289
  O           0.78786647943282      1.01225164096634      2.09544763346678
  C           4.40127099663852     -0.91432509256135      4.65067259655420
  H           2.46140061941780     -1.85102250396903      4.31655154520885
  H           2.96305805738181      1.08556258417937      3.55480202045894
  H           0.39076000959190      0.76637629445328      4.03471284620905
  H           0.55529838531571     -0.77806803003152      3.14337085904848
  O           3.21419065642267     -2.25275676612303      0.78179546751774
  O           1.33991300039352     -2.10637098552409      1.82565483073125
  F           5.11484962623922      0.11105507277931      4.16045160508634
  F           4.47989623500075     -0.81732811601856      5.99324523485297
  F           5.04695503599491     -2.03492186708320      4.31555350183330
