19
Coordinates from ORCA-job NEB_product E -45.074623858290
  C           2.80551560494530      0.33587874871839      1.82282189532357
  C           1.45506089804587      0.86142602241154      1.33151665584682
  N           3.21936173136242     -0.76450034544077      0.88206138414628
  H           3.57905392464173      1.10687907901348      1.74724060939603
  H           1.47840457792823      1.92577464932377      1.04232422253478
  C           2.66484200505549     -0.14149970971688      3.28634879007437
  C           1.62889984979866     -1.21301256764682      3.49943206612646
  C           0.57164408230286     -1.03561598012170      4.26804173814464
  O           0.47226863225199      0.19405207436960      1.26373964114122
  C           4.02507922167980     -0.62192386108447      3.80374997958048
  H           2.41009066445270      0.73774864347461      3.89211064811074
  H           1.80089223058124     -2.14669310911029      2.98618867080962
  H           0.38250810592124     -0.10857179849151      4.78488492679115
  H          -0.15075888173498     -1.81890992004283      4.40821613933076
  O           4.16636911292915     -0.50570306940890      0.18730762884201
  O           2.56650133064721     -1.76759554686364      0.86329719678248
  F           4.48948657976604     -1.68712768678574      3.14693092281714
  F           4.95960086840078      0.33797097853848      3.69232515714367
  F           3.96407946102426     -0.94817660113634      5.09756172705777
