17
Coordinates from ORCA-job NEB E -38.097206774310
  C           0.45474203558582     -0.23321173883394      1.40112085350582
  C          -0.90103805042755     -0.19428564185258      1.67793252562075
  H           0.98895417712217      0.70290942881704      1.46758189761174
  H           1.01663553458946     -1.10115093464917      1.70995689740887
  Cl         -1.70099077677142     -1.73599755210284      1.98889487499124
  C           0.33114433099695     -0.31400301969381     -0.57136256941154
  C          -0.49864832029560      0.76276951154066     -0.86803755606855
  C          -1.82463469569779      0.74407426172661     -0.33350791904430
  O          -1.64878994480485      0.75867081168998      1.25989428045966
  C           1.74670824493706     -0.30597448221914     -1.07724981618547
  H          -0.09926547286128     -1.31056297289396     -0.60262902416530
  H          -0.05086527054447      1.71898106658058     -1.09202764877022
  H          -2.38659653118146     -0.17607833216803     -0.48130434145310
  H          -2.42336144657809      1.62922635341403     -0.51039315074428
  Cl          1.71817910756205     -0.49831307714167     -2.85861224005745
  Cl          2.58930356110851      1.20819284532267     -0.70215014068620
  Cl          2.68852351726047     -1.65524652753642     -0.40810692301166
