17
Coordinates from ORCA-job NEB_reactant E -38.120597373690
  C           2.79488856560501     -0.19637783849850     -0.86794756108143
  C           1.56296610299519     -0.47767791324169     -1.25914600129247
  H           3.46740149253304      0.38704373104589     -1.46757755325071
  H           3.16156715194304     -0.56444629828383      0.06976418762834
  Cl          0.50501622755212     -1.44075078534097     -0.29397107136490
  C           3.81741363276163      0.74454694983952     -4.36643543603075
  C           2.72734967057796      0.10053367042149     -3.97959261153476
  C           1.57584803861104      0.75804281910200     -3.28104164442295
  O           0.91057419014078     -0.10809484925511     -2.38439785497658
  C           4.97235881832210      0.14141848836679     -5.07921084952360
  H           3.93966352530032      1.80300094516870     -4.17928413480273
  H           2.60414831979420     -0.95699217668880     -4.16409391347778
  H           0.80842496297024      1.01545055535933     -4.01968110356076
  H           1.89488250461492      1.67388109994760     -2.76804478441662
  Cl          5.21837520785375      0.99396039723372     -6.63392351663417
  Cl          6.44667873953048      0.36457093742617     -4.08727562352856
  Cl          4.78714284889416     -1.58310973260231     -5.41444052772957
