17
Coordinates from ORCA-job NEB_product E -38.147291085080
  C           3.12205184661983     -0.95864742290827     -2.33982312396327
  C           1.84116216971741     -0.72179794640176     -1.60164037262020
  H           3.94718179799720     -0.77052268062430     -1.65032462783741
  H           3.15267266266297     -1.99960829328026     -2.66804877990418
  Cl          0.42168220087491     -1.02098121968172     -2.61102128993020
  C           3.23010714450567     -0.03292003581277     -3.56415207722934
  C           3.17066935367618      1.40711609487204     -3.13082970164759
  C           2.24552626216398      2.25214861065268     -3.54113459227046
  O           1.70158795423387     -0.38613442717254     -0.47624049370591
  C           4.52161673452351     -0.30405399168699     -4.33772596421620
  H           2.40033699096811     -0.24249658170704     -4.24659034607763
  H           3.93960860779676      1.71371957185381     -2.43665181498019
  H           1.47156130903631      1.95984676594671     -4.23145904188320
  H           2.22247659680559      3.27211594319398     -3.20018361051522
  Cl          4.61368385826626      0.78898117320261     -5.73903951725019
  Cl          5.96300396744687     -0.04571509735424     -3.33305267281081
  Cl          4.55687054270458     -1.97985046309195     -4.94058197315801
