19
Coordinates from ORCA-job NEB E -48.343124500640
  C           0.82139594153772     -0.65668831840761     -0.11949395444374
  C          -0.21026988616389     -0.32523790939779     -1.01255112485873
  N           0.53251317662264     -1.84676804115557      0.69763400259191
  H           1.83315261139100     -0.70492249936990     -0.51667911116381
  C           0.15960018788906      0.34095522336998     -2.32352377405068
  C           0.72027336365696      0.69133547306708      1.17232317550624
  C          -0.60214741243504      0.57972230733368      1.59414333561032
  C          -1.65286991085035      0.73559839806707      0.59972627673796
  O          -1.44861177870502     -0.17565447936820     -0.59169332935454
  I           2.26001987192385      0.38246388972529      2.61846006470279
  H           1.00833927510786      1.49909101467298      0.51169546642045
  H          -0.84858761430080      0.12652069795305      2.54035531567650
  H          -1.66894538190283      1.72617909689821      0.13811489241061
  H          -2.63795799343537      0.46328976202880      0.96939451686075
  O           1.34774555755699     -2.72900142740240      0.62870782610781
  O          -0.50566112813301     -1.86284506309188      1.30654732787132
  F          -0.84011328937262      0.36530594947088     -3.19535642541245
  F           0.52145031775141      1.63372417493287     -2.11116223517767
  F           1.21067409186145     -0.24306824932655     -2.90664224603505
