19
Coordinates from ORCA-job NEB_reactant E -48.373165107190
  C           2.07607903878092      0.18397095889867      0.20884418059939
  C           1.62366128815027      1.39671069198630     -0.16369094884729
  N           1.75454482345204     -0.55823082961126      1.38253934314915
  H           2.78279491814072     -0.33119388704124     -0.42565607297750
  C           2.08694306294512      1.91347892960238     -1.53449214301306
  C           1.91441869480852      3.65036207117388      3.45789406181095
  C           1.81527804291152      2.63491638454709      2.62069955990666
  C           0.58805918344604      2.38777030597060      1.79604341708991
  O           0.89166457448408      2.34000039612808      0.39985195013467
  I           3.60431725313555      3.99023378780908      4.64759113780359
  H           1.12707726026051      4.36961713915413      3.60912321977828
  H           2.63060239727162      1.93578932195081      2.49938269417165
  H          -0.11628459611217      3.21725679267973      1.88142917792890
  H           0.10388449976775      1.45471110829971      2.11551296160789
  O           2.60355125620296     -1.31568306233407      1.79106347371777
  O           0.65017687564939     -0.41786555602568      1.87365177873492
  F           1.11126830986340      2.55767709223861     -2.16786436339029
  F           3.10577523014511      2.77013750292317     -1.39083137410920
  F           2.50968788669666      0.93734085165002     -2.33969205409639
