14
Coordinates from ORCA-job NEB E -26.265274483080
  C          -1.11551184396499     -0.61525111325071     -0.03038773916892
  C          -0.06420233130988     -1.42060872484516      0.34713534158809
  I          -1.69777183490281     -0.83623587801096     -2.46911414073932
  H          -2.08566522773771     -0.95201970590064      0.30878929132111
  F          -0.30546854623626     -2.63017713838033      0.88401457875148
  C          -0.84261585696851      0.90361776833809      0.06494363980239
  C           0.58692626878331      1.16184819662984     -0.18363709838415
  C           1.61089124937825      0.22635865170608      0.26680835145399
  O           1.22942698640996     -1.16298373675821      0.28225998050080
  H          -1.45885938551592      1.45647616926817     -0.64691204542220
  H          -1.16004526729440      1.21657897413415      1.07024767731894
  H           0.87815547202961      1.95473397566888     -0.84765229834827
  H           1.91425192298712      0.42118214368530      1.30634555477083
  H           2.51048839434223      0.27648041771550     -0.35284109344477
