18
Coordinates from ORCA-job NEB E -33.325377560630
  C           0.16298143288269      0.94677416742562      0.22092497246350
  C           0.18004113709936      0.50162509833875      1.54745929783296
  O           1.29022242741952      0.80563473437176     -0.52124299270310
  H          -0.44762726394370      1.81700462891504     -0.00697389687250
  Cl         -1.22246890464999      1.10074493665041      2.47150562971710
  C          -0.97796933557540     -0.65369713103787     -0.49510157501930
  C          -1.09856344007438     -1.58249845414900      0.52484081437370
  C           0.07728304654549     -2.03384656805125      1.13134822719511
  O           0.70622217392430     -0.55550712861626      1.94493819827027
  I          -2.73403502108701      0.18899033259518     -1.32552506460397
  H          -0.21666846720436     -0.80655468362954     -1.24594017897544
  H          -2.01933677679557     -1.62573332678175      1.09075970007783
  H           0.95564918262761     -2.17303009786644      0.51602299043613
  H           0.00372614564903     -2.70035572353418      1.97699326137418
  C           1.31723071033595      1.55169031472709     -1.72222923064356
  H           2.27421053509474      1.33477529883340     -2.19183702015321
  H           1.24346427723870      2.62408538801457     -1.51953720940284
  H           0.50563814051304      1.25989821379448     -2.39640592336687
