18
Coordinates from ORCA-job NEB_reactant E -33.357893202230
  C           1.17614203831238     -0.01483906877271     -0.20686435722685
  C           1.08572174285769     -1.01998575465670      0.66453942170290
  O           1.49773517693886     -0.22513211469795     -1.50789138740021
  H           0.99627645079327      1.00378510307589      0.11163314675638
  Cl          0.55880599527336     -0.65723170616100      2.29724930462234
  C          -0.94804661394860     -3.98367495891566     -1.45077113631462
  C          -0.68190660189571     -3.06579959025462     -0.54409369615241
  C           0.34267374182922     -3.25378072380965      0.53319780746361
  O           1.40023861472515     -2.30262272032539      0.41387896970809
  I          -2.36872913662186     -3.71134437575068     -2.97334222091626
  H          -0.47410361296705     -4.95002713601540     -1.47863592436303
  H          -1.17160547419387     -2.10211912986353     -0.55505322429752
  H           0.82858377298273     -4.22795366186643      0.45741949119089
  H          -0.13035866447410     -3.15327862985507      1.52021537791368
  C           1.79528313950544      0.93659242052011     -2.24981722277335
  H           1.93895794040649      0.61001733105969     -3.27772975368047
  H           2.71153414798406      1.41413572545431     -1.88848212025441
  H           0.97259734249253      1.65775899083480     -2.20795247597878
