18
Coordinates from ORCA-job NEB_product E -33.377801032570
  C           0.65718499608922     -0.85851092889672     -0.90045563375913
  C           1.62453350679742     -0.84177335995867      0.27083584201486
  O           1.31214731494508     -0.56925108061876     -2.09909354814071
  H          -0.16132126248695     -0.14589402343718     -0.70463872562483
  Cl          0.79575385170151     -0.57116271067108      1.80740447425973
  C           0.10595178135384     -2.28371100006802     -1.01350485229726
  C          -0.73369533471136     -2.70452572445503      0.13400557855822
  C          -0.54423823762389     -3.83140363353929      0.79730450782531
  O           2.79487003854649     -1.00378748188465      0.23806199893140
  I          -1.08412493168891     -2.34979044028425     -2.83370671437466
  H           0.93189763448495     -2.97106018629695     -1.19434636904161
  H          -1.54633219132539     -2.03787077417284      0.39018082251641
  H           0.25325838572208     -4.51179225661451      0.54686885860937
  H          -1.17748333992991     -4.11459938337083      1.61934164283421
  C           1.70005121587801      0.77682483068482     -2.25682366119778
  H           2.10268302374255      0.85151381530166     -3.26420972754228
  H           2.46986799659848      1.06060923895867     -1.53325380174922
  H           0.83949555190679      1.44788509932362     -2.15477069182205
