22
Coordinates from ORCA-job P E -47.096123548300
  C          -1.33223821576887      0.39765803146608     -2.34621285788554
  C          -0.09740462149555     -1.71623472961613     -1.10270279000758
  C          -1.42879497973506     -1.94141100241535     -1.74786882525067
  C          -2.02218893794523     -0.93570662187630     -2.36785029782038
  C          -0.92751896365263      0.70611540290893     -0.89381224427763
  C          -0.09703402966868     -0.42530768509995     -0.25832956000596
  H          -1.85668986930713     -2.92886042229302     -1.70628882592310
  H          -2.97475159267487     -1.02621366786063     -2.85972384960041
  C          -2.20360336402777      1.50227067104273     -2.92742742367530
  H           0.17463386300612     -2.56787711339574     -0.47926323356479
  H          -0.42775436709534      0.35051596025364     -2.96627144104535
  H           0.65444902201839     -1.62718644666150     -1.89534018173575
  H          -1.83980763390744      0.84784938189116     -0.31332298182410
  H          -0.53185189602694     -0.66919555665253      0.71865808645470
  H          -0.37994127017928      1.64965222192932     -0.87321212016995
  C           1.32698013721645      0.03775807903065      0.01921635738466
  Cl         -3.72588903464431      1.66721667871616     -2.02415037496175
  Cl         -1.35780295390440      3.06912197207713     -2.89578049260817
  Cl         -2.59903904970424      1.13115631212645     -4.62446071710922
  Br          1.33576662062738      1.53559559066176      1.28753459019415
  Br          2.40078825898701     -1.38567143970833      0.82089865256514
  Br          2.23496287788240      0.62802438347547     -1.60682946913301
