22
Coordinates from ORCA-job R E -47.004753031780
  C          -1.40617638991730     -0.31429736365253     -3.01915590675270
  C           0.18757128050043     -2.83648626293121     -2.57070146995428
  C          -1.00306489743572     -2.55849250112006     -2.04727931977632
  C          -1.74138192379558     -1.31859759251632     -2.20645624598371
  C          -0.72615090940029      2.35327016023890      0.62763198827484
  C          -0.44784377948447      1.12458238904229      0.22999748604970
  H          -1.48119470080871     -3.29003158570096     -1.40995833059085
  H          -2.63274475472108     -1.22910085888626     -1.59851931567944
  C          -2.13482164190685      0.96647773325344     -3.15818829927100
  H           0.66870295107917     -3.77920677212425     -2.37618491652415
  H          -0.54027708253226     -0.38118246695207     -3.66291813773679
  H           0.72670215586236     -2.14486322783807     -3.19501723751911
  H          -1.70552476500516      2.76704011133168      0.46510096239981
  H          -1.18557731793641      0.51527665410120     -0.27679933970251
  H          -0.01027515484496      2.98393017347151      1.12914179220439
  C           0.86145329573570      0.44843887626987      0.36217606307505
  Cl         -3.42293553045843      1.20143637975112     -1.96629821618618
  Cl         -0.98666054582687      2.33246215009496     -2.99455330613733
  Cl         -2.87065943407204      1.06380039380950     -4.79426048628468
  Br          2.11955127452264      1.32223508070685      1.54955462512276
  Br          0.59953614409498     -1.38987210230110      1.00389560629897
  Br          1.71338172635086      0.32445063195152     -1.41349799532646
