18
Coordinates from ORCA-job NEB E -36.700908502050
  C           1.23766054642803     -0.19896982432511     -0.60943635078700
  C           0.69159062252046      0.93919643751583     -1.24268977899735
  N           0.90284857443132     -1.43128179350159     -1.05968479599970
  H           2.19683554951038     -0.11402591569073     -0.11390294729694
  Cl          1.51046946230502      2.46161184967374     -0.86823880386702
  C          -0.09884313901803      0.17893893869301      1.06287085800916
  C          -1.33306501071166      0.08911499078945      0.42405225434803
  C          -1.74841793253531      1.11711945181629     -0.40984439195127
  O          -0.45084918364114      0.97140429884788     -1.72917365012150
  N           0.38246116053464     -0.92605081998420      1.81153861196266
  H           0.30862226673664      1.12555567720731      1.39103872240891
  H          -1.78452911840677     -0.89095048754856      0.34790123552475
  H          -1.48343121668460      2.13584460985425     -0.16799968147383
  H          -2.64852564433258      1.00063104535943     -0.99079769553265
  H           1.10201992020898     -2.22685543385794     -0.46798309120201
  H           0.02001816670363     -1.48515876358305     -1.55039696953393
  O           0.04746009546367     -2.04308269519359      1.44583613542967
  O           1.14767488048732     -0.70304156607243      2.72691033908001
