18
Coordinates from ORCA-job NEB_reactant E -36.715211272670
  C           1.80545401414020      0.05831542240855      0.04260081656189
  C           1.67138712171228      0.80888643802176      1.13842321806560
  N           1.67900620041278     -1.31549833631828      0.03605514299324
  H           2.11920671428122      0.51143824710015     -0.88379154976761
  Cl          2.00386985648275      2.52481742707010      1.07500737849968
  C          -0.88113833857368      0.31539885260583      5.16364108704218
  C           0.21944755914467      0.33591347802100      4.42058272591175
  C           0.32399519417144      0.94057905395818      3.06965487593739
  O           1.37251193680516      0.29328181124297      2.36462640828104
  N          -0.88302849999543     -0.26991733697433      6.47140878068421
  H          -1.83829689636107      0.72171391988904      4.87422453036704
  H           1.12889842920311     -0.10910628163724      4.80612805459455
  H           0.56504824535837      2.01107859531120      3.17466557088586
  H          -0.62352602519824      0.86300332298106      2.51744351618841
  H           1.33803939444901     -1.71987225363799     -0.82147174035392
  H           1.26283490351563     -1.69759391025852      0.87251935225008
  O           0.14809219151253     -0.74419699586351      6.89418320511658
  O          -1.93810200106072     -0.25054145391997      7.06859862674202
