14
Coordinates from ORCA-job NEB E -22.053694126960
  C           0.95738685181273      1.09617489373855      0.38719488817566
  C           0.83344011061902      0.00101559875434      1.20714293556858
  H           1.69841281962555      1.02008272694817     -0.39456387167989
  H           0.84206664012632      2.08362233530838      0.80422206502739
  I          -0.15925003438869      0.33005320236275      3.12434546559814
  C          -0.60716900542656      0.78172959358600     -0.90579719510681
  C          -1.09726290717742     -0.46327559612763     -0.57223196902980
  C          -0.16546436048978     -1.53627356726071     -0.49999646541283
  O           0.80506744025820     -1.19612138724892      0.79064801821189
  H          -1.24306058331810      1.64316292570663     -0.76378034474660
  H           0.06084538174039      0.85822160898355     -1.74976417873757
  H          -1.95976320852059     -0.52107435812175      0.07996117820724
  H           0.57660306358812     -1.58599959255234     -1.29212611891194
  H          -0.54185220844918     -2.51131838407701     -0.21525440716346
