14
Coordinates from ORCA-job NEB_reactant E -22.084892955730
  C           1.93021290226298     -0.03904787012841     -0.14886663151440
  C           1.34290163681805     -1.18968614771398     -0.42222036722348
  H           2.53313643495022      0.44427571334350     -0.89855198709949
  H           1.84581049965552      0.43287732227772      0.81079014373355
  I           0.12798390180699     -2.11757192376648      1.09973469776146
  C          -0.94499273019013     -1.31558225679839     -3.97630241690106
  C          -0.52570810192643     -1.39108069629728     -2.72846257522853
  C           0.41989911425856     -2.43707009590224     -2.22293056941435
  O           1.53753351223251     -1.88143640594844     -1.54296154103289
  H          -1.63800021631695     -0.55717365055587     -4.29643858682847
  H          -0.62080428780632     -2.01795690297633     -4.72632617751887
  H          -0.85691148198855     -0.67710172413898     -1.98481865965839
  H           0.84825191213322     -3.01511742523339     -3.04379641290842
  H          -0.11511309588968     -3.12152793616142     -1.54554891616666
