17
Coordinates from ORCA-job NEB E -36.939594137590
  C           0.05247801647491     -0.45115558249165      0.73185497485041
  C           1.54592040558989     -2.34880605713672     -0.19651345434244
  N          -0.68749421767859     -0.90522830053021      1.71008167532625
  H           0.78610289343600     -1.24374471359630      0.38669567642239
  I           1.22631020467883     -3.90033556472613      1.04854525259907
  C           0.07947094021863      0.91623306474960      0.13968378984883
  C          -0.70348300195248      1.01134711974062     -1.15390338103345
  C          -1.60139727933332      1.94755205904971     -1.38579890648544
  O           2.12050220702996     -2.08950129305277     -1.16371058392842
  C           1.45391704537752      1.29985863357350     -0.11696613003356
  H          -0.34319735032561      1.60639838862112      0.88256803935724
  H          -0.47121185795193      0.25226521555504     -1.88849756671919
  H          -2.14232257197390      1.99111490795142     -2.31513043873598
  H          -1.83827832056875      2.70515402619476     -0.65716130445782
  O          -0.47933771127486     -2.12411664725734      2.05594856900288
  O          -1.54308502206100     -0.21715393894120      2.26716869862681
  N           2.54510562031469      1.55011868229654     -0.34486491029758
