26
Coordinates from ORCA-job NEB_product E -55.699210564900
  C           2.68721836704638     -1.41958339919975     -0.15973120246034
  C           1.39585763444422     -1.51301770855611      0.69562976194762
  C           2.35605455739581     -0.58982984869202     -1.39950224840940
  H           3.43684145930508     -0.84231070460161      0.38945243880886
  C           1.50688135462387     -0.91447591563706      2.07446718384360
  C           3.22824833555667     -2.87083206918762     -0.29788203204254
  C           2.26884690675146     -3.85957313145350     -0.90571119878867
  C           1.60262445327457     -4.74216345285342     -0.18648527732101
  O           0.40590345727010     -2.04323349678485      0.27899987117865
  C           4.59735738327974     -3.00659326791084     -0.97455937473964
  H           3.39712825950708     -3.18180224946025      0.74121772057979
  H           2.16157676132737     -3.83492125778287     -1.97730912612085
  H           1.69186419774737     -4.79729079362522      0.88604859216808
  H           0.92524352105219     -5.43982170449457     -0.64492387076242
  Cl          1.40534424148427     -1.42140348874431     -2.62251259535670
  Cl          1.38205646241600      0.82059493621370     -0.83219566714112
  Cl          3.81262810233501      0.10392187936236     -2.15016052898979
  C           2.48851485884117     -1.68417246031182      2.96057380272732
  H           0.51451731678677     -0.93226949074444      2.52715878198313
  H           1.83440408084299      0.12249151829605      1.98457314430122
  H           2.19689019541193     -2.72909076846387      3.03248016633554
  H           2.47855312658860     -1.25997919770356      3.96105369004516
  H           3.50493958142504     -1.62467225737510      2.57964625422998
  Cl          5.76683005503638     -1.83416922299862     -0.32456202853623
  Cl          5.22040117188112     -4.64296055580855     -0.59767015437312
  Cl          4.54557415836881     -2.86034189148217     -2.73649610310712
