17
Coordinates from ORCA-job NEB E -30.307271271130
  C           1.15897115250566      0.14629032705650     -0.60525888437636
  C           0.34826234950479      1.23180186006025     -0.95537768157575
  N           1.12334411994049     -1.00842151866727     -1.37197453057616
  H           2.13802687060869      0.35773737575172     -0.18859272579542
  Cl          0.85117411867282      2.77466925012296     -0.20703274181351
  C           0.08753620319745     -0.30912825489098      1.10315222017770
  C          -1.19153438361002     -0.47885421064303      0.57669684939734
  C          -1.88576631284121      0.61772532475535      0.07190534535071
  O          -0.83863473604680      1.13006992093202     -1.32530988316353
  O           0.76265222626025     -1.42952632255993      1.51258107171405
  H           0.32193429706902      0.60990362712362      1.63084390870186
  H          -1.45976318828894     -1.47533534283913      0.25586369394647
  H          -1.80869814937739      1.56605502401006      0.58522299795148
  H          -2.82325739086003      0.45217541113409     -0.43390605008425
  H           1.46218056987146     -1.82898620976820     -0.88670288783260
  H           0.21595468676693     -1.16857919007943     -1.79191741883121
  H           1.53761756662685     -1.18759707149860      2.02980671680919
