26
Coordinates from ORCA-job NEB E -46.352753542920
  C           0.50145874515805      0.35465980006538     -0.20183865820414
  C          -0.57566944891814      1.22055265335986      0.03996273695647
  C           0.49921669355584     -0.40636889578202     -1.50880916644683
  H           1.48468151882385      0.74272973272029      0.05747171499282
  C          -0.42961610853219      2.46586564073341      0.81955886342546
  C           0.15840204425505     -0.99579628577801      1.13923657420270
  C          -1.13881177423724     -1.37462294369400      0.81784139997197
  C          -2.17895375980379     -0.37014189860766      0.86285700680794
  O          -1.81036000159390      0.76591229739913     -0.10098493671942
  C           1.27017958619701     -2.01603488888175      1.09765834194683
  H           0.29606166081570     -0.33070560769128      1.98687527916662
  H          -1.29131030269145     -2.25267664303812      0.20855567116247
  H          -2.27274656858716      0.12903487434317      1.82950598961113
  H          -3.14806974095037     -0.70022109890066      0.50083915093783
  C           1.02337916932287      0.50588814262678     -2.61672899884380
  H          -0.51688369558385     -0.72363954129859     -1.74552040164632
  H           1.13341248323102     -1.28853013113099     -1.44753268718904
  H           0.38298705720805      1.37766152538577     -2.73036169605026
  H           1.04332138480406     -0.03388521289373     -3.55959535212799
  H           2.03175279824003      0.84805477534682     -2.39347876395516
  Br          1.10123203198289      3.51531994470350      0.28052454063030
  Br         -2.02994117065820      3.53594796389076      0.69665906865628
  Br         -0.15273519045047      2.10919328268047      2.86895134896820
  F           1.03575703802430     -3.00704969071572      0.18040345251676
  H           1.34902109554406     -2.50734020776900      2.07507401512718
  H           2.23423445484400     -1.56380758707381      0.84287550610199
