26
Coordinates from ORCA-job NEB_reactant E -46.375536328390
  C           2.20656608309794     -0.09988181194708      0.46489321746207
  C           1.50513590874125      0.01304687410903      1.59153984434454
  C           2.06269843231040     -1.03348172543522     -0.68976551418404
  H           3.03311464048602      0.59175087084538      0.34627828617900
  C           1.88152519538890      1.10603709622342      2.56354498172394
  C           2.41526071262528     -2.58016371374330      3.01810493758613
  C           1.55862933804337     -2.83792857400005      2.04312516622594
  C           0.28590194683000     -2.06765954738771      1.84420907658839
  O           0.42876680440482     -0.67150326703331      2.06663439926169
  C           3.71801395730797     -3.28048151821650      3.21266783071310
  H           2.21744358662088     -1.81816370244000      3.75964682839870
  H           1.76488974654364     -3.61860605703571      1.32619809760488
  H          -0.46435628712829     -2.36530540303647      2.58613265291417
  H          -0.13457743450080     -2.25048772941385      0.84918493174802
  C           3.37437730222835     -1.77845606576305     -0.94144870901594
  H           1.82343930575960     -0.43114561441230     -1.57208189666761
  H           1.25330635326409     -1.74479289504298     -0.54822175978502
  H           4.18422821334821     -1.07517689605793     -1.12047420849377
  H           3.27685824490565     -2.42125631466329     -1.81238892281895
  H           3.63710811934852     -2.39471120811863     -0.08524437988607
  Br          1.73827479198363      2.87705038006786      1.75110645087700
  Br          0.76804377969535      1.07361266698451      4.13819005104725
  Br          3.74625613885144      0.88448910483446      3.16121123616402
  F           3.97028893552359     -4.17955133826246      2.20775540471902
  H           3.72419549955561     -3.84160749125860      4.15506561435749
  H           4.54671068476458     -2.56092611979626      3.21563638293601
