26
Coordinates from ORCA-job NEB_product E -46.382440540830
  C           2.42907874355442     -0.91071050132736      1.36369374899668
  C           1.52542090588722      0.19395783644515      1.82455764412253
  C           2.08907962207576     -1.13037225689058     -0.12852494062335
  H           3.47758866221462     -0.60550422252118      1.42818115049306
  C           2.20781257812047      1.53408609426237      2.11391971802171
  C           2.20751815460575     -2.14529138545743      2.29166429683795
  C           1.43966209075719     -3.25984867424683      1.63878996587303
  C           0.17494111647556     -3.52489592577518      1.90422158860481
  O           0.34472686766616      0.10135447254904      2.00192671976806
  C           3.54291636888208     -2.66763650108606      2.82844610290348
  H           1.63893995046822     -1.81187879099562      3.16741383938437
  H           1.99984017318355     -3.86339525029571      0.93874971372010
  H          -0.39652847990455     -2.93020930225886      2.59786162847153
  H          -0.34542671832467     -4.33861920862601      1.42920839512130
  C           3.24596595150748     -1.75591054833191     -0.89421124914696
  H           1.85424887959745     -0.16427818509814     -0.58472086408970
  H           1.19283106180627     -1.74766750024942     -0.19854813202406
  H           4.10584589016146     -1.08964883020522     -0.89453253635926
  H           2.94966102366921     -1.93111534452394     -1.92515139347301
  H           3.54813036235717     -2.70035905415557     -0.45403519800502
  Br          3.36510767904934      2.11525630074340      0.67176098854117
  Br          0.88482268828555      2.89590183951930      2.48166928942281
  Br          3.29042603229916      1.22877690973477      3.71805115023841
  F           4.35357176139153     -3.10455044212782      1.81263564834639
  H           3.37702810118154     -3.52314692682830      3.49078655143003
  H           4.09649053303203     -1.88709460225287      3.36178617342394
