24
Coordinates from ORCA-job NEB_product E -55.762706663850
  C           1.43802331175867     -1.02899208674529      1.78054141370944
  C           2.68320262350669     -0.52350143432730      2.54433975007967
  C           1.77510343639379     -1.66161541340032      0.44014146613593
  H           0.85198528266077     -0.12434504588942      1.55416696090965
  O           3.79757750121066     -0.64632826454115      1.85308065193377
  C           0.56496226350317     -1.80350181495498      2.80317588667480
  C          -0.88412044483984     -1.94498427523692      2.40536491673966
  C          -1.72881664562144     -0.93100293577573      2.41686389610866
  O           2.59468096177500     -0.05582124710910      3.64567744283021
  C           1.12537653466472     -3.15974569220466      3.21464763575478
  H           0.62008855622643     -1.18781486862592      3.71399279475045
  H          -1.21043908493957     -2.93437789504018      2.12060388664860
  H          -1.43053932655236      0.06262880851655      2.71033770390502
  H          -2.75595414766244     -1.05853213378130      2.12791483214188
  Br          0.18721936959132     -2.34501833302957     -0.46731256588891
  Br          2.47599175830766     -0.24884293474500     -0.72792794275688
  Br          3.09111444176298     -3.08237067984195      0.46644594099968
  C           5.00063491630039     -0.22282799533305      2.48849846903420
  H           5.79380516069971     -0.39265765597347      1.76582526194008
  H           5.16618216836096     -0.80991433870080      3.39268844539451
  H           4.93189188953895      0.83374701032596      2.75064892941992
  F           0.94844861306974     -4.11780257693210      2.29692971031757
  F           2.43912332184896     -3.11435807740695      3.48534023433092
  F           0.52145753843509     -3.59312011924735      4.32851427888640
