24
Coordinates from ORCA-job NEB_reactant E -55.745087883540
  C           1.26987421768687     -0.52431829252757     -0.11295094310757
  C           2.01465024620174     -0.76603695561279      0.98596139751283
  C           1.88621734105534      0.12796468568266     -1.27306478130152
  H           0.23128453416681     -0.79116663154874     -0.17696577528933
  O           3.29737017997688     -0.40015510920122      0.97884273386138
  C           0.93125953703052     -2.52695463827743      4.50660739130776
  C           0.01646408857436     -2.39646051892648      3.56093103028104
  C           0.26091803810449     -1.77556091381915      2.22585431610626
  O           1.60402698600905     -1.35153495927850      2.12516945247885
  C           0.64332044788731     -3.15758462683997      5.83218091017608
  H           1.94891349993935     -2.19007547563215      4.39002129558418
  H          -0.99555839869614     -2.74578471368424      3.71180970922922
  H          -0.41898022328114     -0.92083862028690      2.09878999632172
  H           0.03458892238396     -2.51193631123766      1.44130317421552
  Br          0.60120580552345      0.35513130744158     -2.70845828454224
  Br          2.61198493946572      1.91900857184238     -0.83450703806479
  Br          3.41181690499205     -0.90870694609723     -1.99846182661164
  C           4.08368598307778     -0.65162128523721      2.12983182155060
  H           5.07371613975666     -0.27268632511876      1.88714425079308
  H           4.13311298724333     -1.72186120376469      2.34006440507830
  H           3.68241706548831     -0.12345374876247      2.99706917297886
  F          -0.62827520733892     -3.55405626756654      5.96884756380118
  F           1.40978328676127     -4.24135488385228      6.04339100273543
  F           0.89630267799093     -2.31525613769465      6.84818902490480
