21
Coordinates from ORCA-job NEB_product E -29.191250201870
  C           2.68226978035303      0.56923098326462      0.85612097781488
  C           1.27479682196090      1.13707193412406      0.94685148939096
  C           2.65571588041945     -0.91463362436109      0.49925553433667
  H           3.26131803397118      1.11911657679693      0.10908662328250
  C           1.13507579442011      2.55345294272217      0.45035490779182
  C           3.39045682816754      0.81370040769279      2.21478239290352
  C           2.78641544342911     -0.01444435684818      3.31132032957765
  C           1.91556058284206      0.44647584322264      4.18814619607079
  O           0.34915457400478      0.50722497319681      1.38965007528038
  O           4.75969774597300      0.51717592150365      2.01509663174607
  H           3.28307098085488      1.88340967305765      2.46946855759014
  H           3.11754415903990     -1.04315775600899      3.33959144348452
  H           1.57580291831928      1.46911076310008      4.16828238735454
  H           1.49109664137360     -0.18236892704292      4.95110245080649
  H           1.94541595663731     -1.43673436476874      1.13505490320477
  H           3.64647532157582     -1.34174247223470      0.62632193823470
  H           2.34881947264873     -1.04067414782028     -0.53656407909103
  H           1.92900070130356      3.17757995170099      0.85313215922237
  H           0.16406041785583      2.95803000556135      0.72342299540154
  H           1.22623049613559      2.55206217569043     -0.63465223527948
  H           5.19912144871435      0.49591349745072      2.87157432087620
