17
Coordinates from ORCA-job NEB E -25.496945137330
  C           0.97717124377956     -0.48775442895477     -0.82905241394958
  C          -0.35689317068861     -0.84176758866590     -0.61791531193286
  H           1.73785862511099     -1.09879292786421     -0.36322019866979
  H           1.25644965661091     -0.12419879610025     -1.80945032644838
  C          -1.44645698733611     -0.33682652333320     -1.51805298308139
  C           1.09090435190322      0.99315852547741      0.34681038163870
  C           0.70463409637495      0.48394586018146      1.58499298400643
  C          -0.60879987348925     -0.08826242853900      1.65405605977327
  O          -0.69252632671497     -1.24786290951775      0.58847521731454
  Br          2.89619802415473      1.63380584014638      0.17835880309039
  H           0.42773445728034      1.66728318353394     -0.18393872156188
  H           1.46641320330027      0.08829794979150      2.24024885270567
  H          -1.42040213770935      0.56822096228013      1.33802198415199
  H          -0.84320565918488     -0.59096815362435      2.58581950439146
  H          -1.83737852065447      0.61015013115017     -1.13334516040693
  H          -2.27063651634991     -1.04635866788517     -1.53349397896165
  H          -1.08106446638741     -0.18207002807641     -2.52831469205998
