17
Coordinates from ORCA-job NEB_product E -25.545378948380
  C           1.98654413454366      1.76512238086117      0.31613640481719
  C           0.77529576854435      2.29306959385672     -0.44749990256197
  H           1.71197006222012      0.80526240864639      0.76429645393562
  H           2.84213527533993      1.61918756520424     -0.34390594448494
  C           1.01399096029037      2.56966430999026     -1.90214259320920
  C           2.34096365646830      2.71960219931163      1.45218510820858
  C           3.39601952936239      2.18584560131793      2.35300158928584
  C           3.26514514176668      2.11161517046461      3.66486150944555
  O          -0.27347960080090      2.48587289978986      0.10983851984508
  Br          3.01061543555147      4.41793884968916      0.65771439456522
  H           1.44258388551364      3.00393438273933      2.00388160915941
  H           4.30600109535727      1.86592730089019      1.86240561131551
  H           2.36805489797214      2.43795866328276      4.16538094063760
  H           4.04762906781181      1.71832369642368      4.28996205394501
  H           1.76793898219724      3.35100475618994     -1.99285735053651
  H           0.09544563165072      2.89685773904335     -2.38148787875912
  H           1.39284607621082      1.67651248229879     -2.39477052560888
