17
Coordinates from ORCA-job NEB_reactant E -25.529086006110
  C           1.71601119816604      0.19970508336210      0.11128364563203
  C           1.57668353008173      1.49741053615725     -0.12412734491905
  H           2.20092167888459     -0.20347455958698      0.98086625232412
  H           1.33189302985337     -0.51637167561262     -0.58980216128842
  C           0.90021907860152      2.05689524959811     -1.33924480913931
  C           2.83205965818694      4.63901256474526      2.16888831295244
  C           3.08326158638058      3.41943617317617      2.60574384118839
  C           2.68120911145110      2.18007301365029      1.86989171508690
  O           2.01514950046702      2.51483068506578      0.67872849281820
  Br          3.35341641601446      6.18298339487307      3.12108611476310
  H           2.31704797326631      4.84852819441493      1.24693496397113
  H           3.60338860807671      3.24713795160233      3.53713719505091
  H           2.02890680084733      1.57327433887625      2.51803079956767
  H           3.58246267746193      1.58460966471618      1.65259880183077
  H           1.60092419455430      2.67379490885553     -1.89884975749065
  H           0.06718566979516      2.68894493012250     -1.03749897770394
  H           0.53535928791090      1.25860954598386     -1.97606708464429
