14
Coordinates from ORCA-job NEB E -27.031866794080
  C           1.16616095469851      0.84037552291979     -0.41391065210388
  C           0.73580605107547      0.95246978682911      0.89350502465850
  H           0.68912440441329      1.47296067686553     -1.14433490984696
  H           2.21298825670912      0.64229343845264     -0.58923859778564
  F           1.56611830036923      0.41457852340505      1.84973454617036
  C           0.20638490516416     -0.84389688543642     -0.87899094231130
  C          -1.09803224890654     -0.56384420353075     -0.49674654508277
  C          -1.34606618216440     -0.30433357929762      0.87736548801293
  O          -0.47969145106649      1.06673377373918      1.23300186127217
  Cl          0.54958592073599     -1.05439824659782     -2.56894557719264
  H           0.82349180886512     -1.49285837045830     -0.26846014716268
  H          -1.76854523630531     -0.14061955789174     -1.22975477016718
  H          -0.90757450734907     -0.99052328466827      1.59546955022517
  H          -2.34975097623908      0.00106240566964      1.14130567131392
