14
Coordinates from ORCA-job NEB_reactant E -27.057567292940
  C           2.07903319394449     -0.01640580576427      0.17124750525828
  C           1.32582487329981     -1.07435892890849      0.41036287693877
  H           2.17768143770943      0.36181470349757     -0.82556658730600
  H           2.59850766631866      0.47073288345226      0.97174117771163
  F           1.19759081513731     -1.55655301541117      1.66778919668528
  C          -0.76248704648695     -4.71308808250374     -1.61985228550724
  C          -0.82124087267746     -3.43495483070285     -1.28787088133662
  C          -0.13405036652250     -2.87248645102750     -0.08530737148452
  O           0.63874986177607     -1.75559804614905     -0.51397525571514
  Cl         -1.57631888698674     -5.35451156865819     -2.98552950719631
  H          -0.21904290818747     -5.45322807828533     -1.05190218497565
  H          -1.36614094896988     -2.72222223218284     -1.88791252333535
  H           0.50980325007022     -3.62418037531738      0.38693308603929
  H          -0.88271006842498     -2.54116017203901      0.64914275422356
