29
Coordinates from ORCA-job R E -48.013511823190
  C          -0.91437146674087      0.23583917519036     -2.97575349036098
  C           0.97507601523703     -2.06180527605553     -2.50174398776743
  C          -0.25018641261123     -1.93685004117679     -2.00020149529963
  C          -1.11414962804960     -0.77994597480334     -2.13574915800166
  C          -1.35517775047476      1.57820384126041      0.77730412978800
  C          -0.66708556141470      0.45938674660066      0.96776677560650
  H          -0.67399598432638     -2.74803549831156     -1.42366768028914
  H          -1.99047517898066     -0.77807856378924     -1.50262263556382
  C          -1.80187088189141      1.40942439314966     -3.13110101393627
  H           1.54858264529396     -2.95958585430158     -2.35037464109457
  H          -0.05878564240010      0.26153091512966     -3.63524311958100
  H           1.45935062075890     -1.27599305456892     -3.05446758619401
  H          -2.33964887769576      1.70670309303980      1.19391385052145
  H          -1.10960215757272     -0.33100789157175      1.56336280709357
  H          -0.97279167156002      2.40939862128406      0.21099711190070
  C           0.66642698044774      0.15833489536962      0.46062053178278
  Cl         -3.18737140342951      1.42697928696115     -2.03799489745429
  Cl         -0.86701719862178      2.91152072747537     -2.86673285680485
  Cl         -2.42585838701478      1.46101848125658     -4.81812606598176
  C           1.34267692174072      0.98537042045971     -0.43690855719818
  C           2.59972412608591      0.64704893291379     -0.89658125954196
  C           3.21367302041770     -0.51939850161015     -0.46931100406018
  C           2.55829511002949     -1.34792301144949      0.42510723767240
  C           1.29822021799380     -1.01267080038973      0.88120222805123
  H           0.87930480291618      1.89466045274745     -0.78471813456374
  H           3.10689835104183      1.29927740360062     -1.59324928781964
  H           4.19772240237273     -0.77963121687352     -0.83089535810814
  H           3.03043570695662     -2.25754101016052      0.76713244122107
  H           0.79072128149167     -1.66461069137679      1.57956511598359
