19
Coordinates from ORCA-job NEB E -38.964350534960
  C           0.36911309579716     -0.96274877113929      0.84088647314071
  C          -0.75286486560701     -1.53779965906828      0.22411477398924
  C           0.15963580787809     -0.19394164922172      2.01313461152330
  H           1.28795680069522     -1.53837813769958      0.82855196007129
  O          -0.53900512586949     -2.64151106202268     -0.53051812150424
  C           0.62507249654065      0.51324281269856     -0.53600105367481
  C          -0.59835178218245      1.16646931199497     -0.46851245792293
  C          -1.74971977950178      0.45571600069280     -0.88070543343789
  O          -1.86380497886186     -0.91499943232217      0.10932339702921
  C           1.88700292866652      1.23009752362173     -0.12673719080844
  H           0.81542732624682     -0.16901674376240     -1.35904879716832
  H          -0.71055725578017      1.96323267800477      0.25157272351273
  H          -1.69802884716559     -0.05676993866718     -1.83663210243624
  H          -2.70982928844301      0.91550963374227     -0.69285767178596
  N          -0.02439168083271      0.42358945592491      2.95861184588790
  H          -1.35799148306383     -2.89323681052878     -0.98048389224970
  F           1.71715509317166      2.02934831800178      0.94401266618301
  F           2.87197231908319      0.35253378693860      0.19235056312064
  H           2.27120921922859      1.85866268281166     -0.95106229346947
