19
Coordinates from ORCA-job NEB_product E -39.019830632430
  C           3.07578689308939      0.86076596796088     -1.39520677915051
  C           1.97946609963157     -0.07320586202015     -1.91185227999281
  C           2.89155757009200      1.04627904838337      0.02794937455971
  H           4.03484172905642      0.34589527677521     -1.54416946836740
  O           1.94036953437951     -1.19777158056147     -1.20496755075421
  C           3.06392969232130      2.19746545618115     -2.17175808679360
  C           2.01263407759450      3.13461063573469     -1.64269194136383
  C           0.90646933009460      3.42605583091009     -2.29821702565930
  O           1.26272039834868      0.16311107644198     -2.84111683773524
  C           4.44184045880090      2.85564808967360     -2.10904425484960
  H           2.85754762268922      1.96592488620433     -3.22235944480363
  H           2.21481772314015      3.54650391685203     -0.66322260155131
  H           0.69235888838497      3.00167358884055     -3.26487871008593
  H           0.16485113659307      4.08688837235625     -1.88499157515077
  N           2.72469911533629      1.19358929874450      1.14736178836207
  H           1.24189068204139     -1.79191784416118     -1.52383471168397
  F           4.85136880170555      3.04733507263700     -0.83524565939687
  F           5.37646801389463      2.05598620586220     -2.68571761290123
  H           4.46708223280586      3.82826256318495     -2.62333662268157
