19
Coordinates from ORCA-job NEB_reactant E -39.001896708400
  C           1.67184509182178      0.58782695890950      0.00319007527049
  C           1.51269117771786     -0.14870285370795     -1.11364872223021
  C           1.77578667897060      1.97359010674637      0.10789824310474
  H           1.71867619555497      0.04635190246825      0.93644082587677
  O           1.41282731248774     -1.48187353279020     -1.00566900193580
  C           3.39064114034635      3.26272139909397     -2.40640894181635
  C           3.01307947124812      2.02954149064294     -2.69310573498810
  C           1.58259034272235      1.59168784735193     -2.77529559962806
  O           1.41243701219084      0.23388378194939     -2.40205441654687
  C           4.82233238603630      3.69459093031016     -2.33954819533687
  H           2.68420577225975      4.05005690439609     -2.19338534351814
  H           3.74469203937990      1.25926654520964     -2.89799862867169
  H           1.25281083258128      1.61766622122914     -3.82014748181653
  H           0.93359168758079      2.24214388426023     -2.18156152655359
  N           1.85361125603632      3.11058135008574      0.26377750487127
  H           1.29904591741857     -1.86509213556934     -1.88669241174047
  F           5.67870291815301      2.69507357881659     -2.65907311769385
  F           5.06575021247296      4.69555684651269     -3.22725526914496
  H           5.09778255502050      4.06892877408484     -1.33916225750178
