21
Coordinates from ORCA-job NEB E -50.241284071400
  C           0.32873619263798     -0.70803449686753     -0.35003194295953
  C          -1.05904551916759     -0.75028337881483      0.25630137498148
  O           1.29693779393416     -0.87037600122672      0.65762040793571
  H           0.42766772005622     -1.48451551220276     -1.11943020890379
  C          -1.72646874135343     -2.08797474144122      0.28052887124267
  C           0.44941607785800      0.69349695751415     -0.96955454717262
  C          -0.42628716387452      1.58428661616262     -0.16440839309248
  C          -0.76713544350979      1.25580555359058      1.23805022085666
  O          -1.28820337583813     -0.02381916314397      1.38077260822205
  C           1.89228019129882      1.24007163714169     -1.05520597293525
  H           0.09688152660448      0.63681015032778     -2.00467223020905
  H          -0.34890057627793      2.64174236509699     -0.37929054858300
  H          -1.50690133958310      1.94226327551234      1.65961644686122
  H           0.15556564480151      1.34684223866770      1.83719381321336
  H           1.23026285904524     -1.75596549076801      1.03263095218714
  F          -2.89076310412858     -2.09380418625095      0.92406267458570
  F          -1.95460801724105     -2.53823638392545     -0.96687003070918
  F          -0.95945646822190     -3.05474211513681      0.86441705545776
  F           2.40605374919398      1.50404716081115      0.16446947848955
  F           2.71115443655385      0.34657240361251     -1.64950691623248
  H           1.93281355721178      2.17581311134075     -1.63669311323591
