21
Coordinates from ORCA-job NEB_reactant E -50.307130776710
  C           2.56266013707162      0.54573858739210     -1.07488709066120
  C           1.35149836178930      0.91776094096509     -1.49953508340800
  O           3.42426307259104      1.34829860055883     -0.39361996219700
  H           2.88227333740073     -0.46767079671606     -1.27178132517809
  C           0.47976829743681     -0.06658968566627     -2.23777502575672
  C           2.68828143976127      3.21341615777699     -3.12442133915628
  C           2.53020174798117      3.65312812692347     -1.88670278702574
  C           1.42020408363541      3.24055138848200     -0.97153597584128
  O           0.69248375863474      2.11133873547807     -1.41143867575602
  C           3.84587752746543      3.59686188362045     -3.99287515798445
  H           2.01050447464298      2.50977885138265     -3.58445420931518
  H           3.22889306935778      4.35851598529439     -1.46027532649779
  H           0.67229546726070      4.03827569441223     -0.91092415586070
  H           1.82758968701888      3.06757643672677      0.03069396360136
  H           4.29995130572220      0.94810338762081     -0.37174884777723
  F          -0.74574349499601     -0.16191413143274     -1.71328536537841
  F           0.31631456506996      0.29024900195055     -3.52422650905853
  F           0.98679473273656     -1.30741174978886     -2.25603036898140
  F           4.61395121938569      4.56318636344101     -3.43676062476067
  F           4.67120119703283      2.52575940960333     -4.17477869576866
  H           3.54003601300093      3.94294681197520     -4.99373743723800
