21
Coordinates from ORCA-job NEB_product E -50.296727666610
  C           2.36271170086441      1.31761671235767     -2.19473395103693
  C           1.21498861659772      0.80405870996910     -3.05435094183733
  O           2.21959427808915      0.90541314504321     -0.86370115584417
  H           3.28521293222220      0.91327619912981     -2.64728250267350
  C           0.70578420488107     -0.61061858317070     -2.63250207516707
  C           2.45259333702910      2.86165547678988     -2.22302384709322
  C           3.45886295323691      3.31910742823451     -1.20066727711011
  C           3.16990192854474      4.13432769215849     -0.20676297309610
  O           0.70477210112692      1.36627010179868     -3.97695873839368
  C           2.87650284955392      3.35706824709841     -3.61229975626056
  H           1.47153917319091      3.28511141594299     -1.99353954753449
  H           4.46223298580459      2.94487630326774     -1.34884751774564
  H           2.17424752907008      4.51529966160679     -0.05427366645612
  H           3.91901631446127      4.45113260582344      0.49705022631906
  H           2.62179564836425      0.04310197436279     -0.71087676844749
  F          -0.10962269600587     -0.55332384220682     -1.57835635710850
  F           0.04958387873157     -1.20435696228501     -3.62385180381732
  F           1.73237476115386     -1.41511916039629     -2.29715849658188
  F           3.09618109709130      4.68931723454398     -3.58320975172927
  F           4.05229255491287      2.78487996512551     -3.98134274328040
  H           2.14213385107899      3.15220567480582     -4.40351035510529
