18
Coordinates from ORCA-job NEB E -25.987398587730
  C           0.59747619734603     -1.21727654749927      0.13007840524709
  C          -0.70818927050463     -0.78524724980225     -0.17593365055464
  O           0.90546296226101     -1.58685844316535      1.40632554503735
  H           1.13675596863526     -1.83210097779072     -0.58220729615074
  C          -1.17570017836015     -0.71967895350864     -1.60275332465629
  C           1.42117054145045      0.53609679004813     -0.03748376391636
  C           0.74792284428745      1.27950665556600      0.92956042078098
  C          -0.64091854673190      1.49849567305718      0.74776342770242
  O          -1.28347105860935     -0.03677112432793      0.72629754885338
  H           2.45696536709370      0.28868865209253      0.14740683138758
  H           1.20014919814941      0.72448978841712     -1.07988117117764
  H           1.13217126857381      1.27579497063251      1.94033067172607
  H          -0.96149174146623      1.84898866991036     -0.22907316303938
  H          -1.18558560415081      1.96426622488285      1.55889969267119
  H           0.26845221753820     -1.14977637964427      1.99356057761828
  H          -1.06621771314524      0.29336236774882     -1.99842910195737
  H          -2.23242287354485     -0.97444991278566     -1.64891581584294
  H          -0.61252957882218     -1.40753020383142     -2.22554583372898
