18
Coordinates from ORCA-job NEB_product E -26.019992739130
  C           2.92343417720123      0.76005261413699     -0.73054727550842
  C           1.41327435174332      0.85497670338916     -0.97844856822809
  O           3.13658941973547     -0.02256981077863      0.41598370885837
  H           3.40711255178440      0.28663277693533     -1.60294066978730
  C           1.03178654029813      0.88909830854625     -2.43619234666426
  C           3.47363223675874      2.19524952227359     -0.58032981122474
  C           2.77084987896067      2.93946510736180      0.51249256365424
  C           2.21767987542278      4.12691292737114      0.36194653950675
  O           0.61588222824222      0.91326401990907     -0.08494030134671
  H           4.54284754703353      2.12339280697465     -0.34700856009221
  H           3.37122972697900      2.72534601853573     -1.52880403187881
  H           2.72029413322407      2.42397922129727      1.46126476379337
  H           2.24413999812585      4.65286898757532     -0.57918166368811
  H           1.71828108471295      4.62708878696088      1.17294895423517
  H           4.01311308785863      0.16411029934341      0.77081265009672
  H           1.67349240207572      1.57249960812172     -2.98633596421566
  H          -0.00823786085886      1.18482730291725     -2.54092175774371
  H           1.16019862070216     -0.10849520087092     -2.85279822976660
