18
Coordinates from ORCA-job NEB_reactant E -26.008557377340
  C           1.82955977718103      0.19278943896258     -0.14204238931859
  C           1.44550935677886      0.98263219944759     -1.14498952361395
  O           2.25001350293975      0.60818769219623      1.11310911534540
  H           1.80231897089313     -0.87687916620898     -0.29467313657542
  C           0.96181740519631      0.39371414505080     -2.44037427808965
  C           4.25867692519253      4.22329222960827     -0.31490629593457
  C           3.51387826191416      3.13627527327902     -0.37079889923226
  C           2.02350127667752      3.12305263583113     -0.20530502691367
  O           1.37518636056522      2.34628654366872     -1.19638559991940
  H           5.32940722446097      4.18677316209605     -0.42192302703671
  H           3.82804168139499      5.19701802641447     -0.14807954017793
  H           3.95970102837177      2.16603318667334     -0.54190280860080
  H           1.61552727590744      4.13022941649464     -0.32672490247227
  H           1.77190702781987      2.75235277605907      0.79525426542619
  H           2.71399612689359     -0.11535493572212      1.54293784998633
  H           1.61447074270349      0.70921183052579     -3.25263840469775
  H          -0.03768818674909      0.76592196632607     -2.65554495919749
  H           0.94037524185847     -0.68983642070267     -2.39601243897744
