28
Coordinates from ORCA-job P E -36.226129984500
  C          -1.29114051471769     -0.05306070626697     -2.71092865675402
  C          -0.61694373974943     -1.42408809348083     -0.42809079457658
  C          -2.03305177685472     -1.48704152733989     -0.90023219515324
  C          -2.35964862920474     -0.82589505285213     -1.99891264386798
  C          -0.52687060477130      0.80621455109110     -1.68665484732306
  C          -0.12621167200088      0.04212754678573     -0.40752024464579
  H          -2.74995662002835     -2.05962169973599     -0.33258916103919
  H          -3.35898631407022     -0.79643803840061     -2.40203430863928
  N          -1.87461191640467      0.82360159505678     -3.71401509257343
  H          -0.50709425826905     -1.85542489255886      0.56743417227869
  H          -0.57757931761429     -0.78216893023626     -3.15040276333556
  H           0.01855570180436     -1.99684146957287     -1.11074128669914
  H          -1.18317344502569      1.63802553902686     -1.42873146483161
  H          -0.61229586607479      0.52565617244868      0.44529214019709
  H           0.35993496219879      1.22637106357751     -2.16551504658738
  C           1.36294551522309      0.06667999583709     -0.17645185860152
  H          -2.37798162136174      0.28201336642379     -4.40822344828086
  H          -1.15070660201688      1.34982889516460     -4.19126172763705
  C           1.88551809718622      0.51754567732258      1.02822141037894
  C           3.25160697800171      0.52571418749691      1.25138303001003
  C           4.11804597935272      0.07937142898003      0.26950373383384
  C           3.60899238897021     -0.37503665606187     -0.93544547985838
  C           2.24396730223910     -0.38143434325976     -1.15457810543983
  H           1.21548316200874      0.86847160066466      1.80065559491576
  H           3.63980752869111      0.88222273419171      2.19451540337129
  H           5.18441331019694      0.08516571198433      0.44087167262899
  H           4.27923658799666     -0.72625534898565     -1.70695454949271
  H           1.85916538429483     -0.73830330730067     -2.09934348227801
