28
Coordinates from ORCA-job R E -36.154704364000
  C          -0.30380894952628     -0.25792766265900     -2.65310467405578
  C          -0.01715357840667     -3.22404116564685     -2.09863177260322
  C          -1.12709761105027     -2.49706929050838     -1.98399818108915
  C          -1.26604994641321     -1.07823439292990     -2.20702028456080
  C          -1.41850149212677      1.67996169352197      0.57668840634474
  C          -0.64993956452037      0.59783403832574      0.61164794967152
  H          -2.03863353225088     -2.99565268497527     -1.67550940194004
  H          -2.23733616120728     -0.65356221307096     -1.98589544248234
  N          -0.48375237283607      1.08048080017268     -2.91825363188805
  H          -0.01789324569525     -4.28239503619387     -1.90252367100949
  H           0.67876511679363     -0.62933497102769     -2.90296318775950
  H           0.92593284124352     -2.79588683188526     -2.39066448736241
  H          -2.43747949460686      1.65410854698378      0.92328837831320
  H          -1.06661603564161     -0.32821705552288      0.98746538240147
  H          -1.07418531414818      2.63233536654436      0.20926727354528
  C           0.73328980309713      0.49415868247682      0.16319630119496
  H          -1.30363100203873      1.48923213067727     -2.49349381180933
  H           0.34029796743088      1.65591044657323     -2.84507276756164
  C           1.47258806483435      1.59081060558656     -0.28268643336872
  C           2.77175879525055      1.43408307651059     -0.72651630594655
  C           3.36328722119066      0.18125963059413     -0.73099209442726
  C           2.64656194825218     -0.91464096738422     -0.27948500882790
  C           1.34793208003961     -0.75895140581146      0.16451408919546
  H           1.03174272124062      2.57673574970912     -0.27745122786116
  H           3.32908873792735      2.29396488648049     -1.07085975384882
  H           4.37795811167222      0.06221500312895     -1.08157609942342
  H           3.10169894625172     -1.89429209921830     -0.27589601794531
  H           0.79077594524399     -1.62031488045164      0.50273647510426
