21
Coordinates from ORCA-job P E -36.639678414210
  C          -1.32054025959562      0.26541389077620     -2.47981077221852
  C          -0.26606544558181     -1.69306139959150     -0.85273075500894
  C          -1.64432371997931     -1.88278754849728     -1.40420519691530
  C          -2.14675237711351     -0.95298659742144     -2.19896363799328
  C          -0.78947060948972      0.80542638817098     -1.13941297621454
  C          -0.09707816896046     -0.26923408992841     -0.27958470735201
  H          -2.18046620379119     -2.78241091206255     -1.14893370459162
  H          -3.13164566294787     -1.00965524772180     -2.63183891036045
  N          -2.12591357961214      1.29950481228957     -3.10764700784493
  H          -0.05025869447193     -2.42843839636586     -0.07923770540954
  H          -0.45134149622234     -0.03648472294490     -3.09848989095927
  H           0.45774433087562     -1.83098194584830     -1.66172149554219
  H          -1.64737026946432      1.20924253159485     -0.60248032026406
  H          -0.53764325075628     -0.25840354979923      0.72195366215085
  H          -0.10715588675892      1.63212834112723     -1.33761069091230
  C           1.38271806910488      0.05398716863705     -0.09196877347850
  H          -2.49855667188138      0.96934107406354     -3.99086595604266
  H          -1.56521047028398      2.12374125700174     -3.29380744716311
  Cl          1.58283780054665      1.61707942656030      0.74408268997060
  Cl          2.19275588072518     -1.18110688026925      0.90069110058532
  Cl          2.23412668565844      0.15287640022907     -1.64743750443555
