21
Coordinates from ORCA-job TS E -36.548423219640
  C          -0.83794133101905      0.51605451809727     -1.35506082842985
  C           0.49196615946303     -1.76285204450192     -0.17294520061550
  C          -0.84141697337795     -1.74209511779115     -0.43987164498488
  C          -1.49199883244706     -0.64238240536113     -1.02064203424481
  C          -0.26765996043108      0.95820536614700      0.83121852007933
  C           0.55354169790732     -0.01897438030643      1.31548256014153
  H          -1.46946272087111     -2.52216256039723     -0.03089973509882
  H          -2.57369959452141     -0.64515341848422     -1.04852225844615
  N          -1.49505302624446      1.60349716617554     -1.86663219375735
  H           0.91440915919007     -2.59691240240805      0.36158567248344
  H           0.22270712850218      0.51356463631800     -1.54696476735134
  H           1.18807262801565     -1.18592003364447     -0.75197271540627
  H          -1.30133202693742      0.97679701905676      1.12066544269196
  H           0.19088498898513     -0.73794790077544      2.03151822109319
  H           0.14738393601050      1.86813510820401      0.43750602637309
  C           2.02254909681810      0.20579221374532      1.36661043585805
  H          -2.46858332221650      1.69934991676243     -1.62310093007573
  H          -0.98772564372322      2.47057190338682     -1.92001942019800
  Cl          2.66998794854807      0.91479660514400     -0.12493079739822
  Cl          2.38726169490163      1.38747101665669      2.69601381556523
  Cl          2.94610899344759     -1.25983520602380      1.74096183172108
