23
Coordinates from ORCA-job NEB_product E -48.870489352800
  C           2.04609325926499      0.66758162717326     -2.21630377340704
  C           0.59125236257105      0.24361502644835     -2.49937157855874
  C           2.12917989102176      0.93475422171533     -0.70620234504341
  H           2.74071845077888     -0.14802274150335     -2.43193430849700
  C           0.40094064705276     -1.23680977949708     -2.65310133947329
  C           2.42333144839145      1.92405507138140     -3.02905372602480
  C           3.63827264732140      2.62078668446040     -2.47626294977782
  C           3.61488511552575      3.85679667552259     -2.01791925603047
  O          -0.29785088215423      1.04813763974477     -2.52347697593742
  C           2.68124368077810      1.56063976095505     -4.49311950392340
  H           1.56594608713195      2.60765469728681     -3.00080409586862
  H           4.54747060943635      2.03740624901897     -2.46892128448987
  H           2.71162732308080      4.44364539086716     -2.00659715583045
  H           4.49853692974102      4.32420623910720     -1.62083391724596
  F           3.41518862147858      0.94288243888566     -0.28073573502670
  F           1.60504231904167      2.12736981070684     -0.36874025921528
  H           1.60253749700717      0.16194154144580     -0.12120797098134
  H           0.94597253987141     -1.58422969898080     -3.52808102321105
  H          -0.65413634006177     -1.46824224121718     -2.76922496293763
  H           0.79887655400156     -1.75540103616984     -1.78302455690547
  Cl          3.08118237901805      3.03083310432925     -5.40896951589287
  Cl          4.03990678414295      0.42114332080050     -4.65403039647154
  Cl          1.25658207555834      0.80965599751892     -5.25168336924984
