24
Coordinates from ORCA-job NEB_reactant E -53.463386245140
  C           1.95257050638139      0.36785656223822     -0.46241088920599
  C           1.13507664613035      1.30196831135752     -0.96595402110892
  C           2.95221751755887      0.47327736742900      0.64516238633619
  H           1.88172461316665     -0.62114668655554     -0.88430129673956
  C           0.13528269555789      0.86429866929126     -2.04072168041574
  C           4.20868452886141      3.90994298323988     -0.83418953705597
  C           2.91576619422046      3.84906293920241     -1.12972467127701
  C           1.85807247272461      3.48062153692401     -0.13973303840322
  O           0.90065178906995      2.58802560495063     -0.72563700994722
  O           5.13625714234739      4.27468462946739     -1.74676714119592
  H           4.57419119130723      3.68641685018322      0.16224840136372
  H           2.57470476462598      4.07919313698494     -2.12705034928693
  H           1.24254736838510      4.35142823755656      0.11052380217592
  H           2.28535593488358      3.08048744388432      0.77906319511610
  F           4.05598187193835      1.19442536094057      0.30580915408750
  F           2.44897704469449      1.08216084498251      1.75261804849313
  H           3.30216268483154     -0.52198773462920      0.95677711219620
  F          -1.12241885990819      0.92069253561673     -1.58734188330199
  F           0.20129122524047      1.65608501481364     -3.11413698924423
  F           0.32772685118714     -0.38738565685714     -2.47407389882811
  C           6.47430736768383      4.23950201227044     -1.30341013389113
  H           7.08532910083483      4.54090706809453     -2.15201605846872
  H           6.75967923299382      3.23122097796630     -0.98783749147810
  H           6.63666011528285      4.93516199064781     -0.47359600992001
