23
Coordinates from ORCA-job NEB E -50.307471585100
  C           0.09411640218649     -0.69159773246975      0.54419769387157
  C          -1.20107190059539     -0.62537729970173     -0.07306515204139
  N           0.07253616519305     -0.84631254512604      1.98113244893964
  H           0.80721023476313     -1.38952968258545      0.11477021375630
  O          -1.50382827722956     -1.31372779833412     -1.17462413272669
  C           0.76072273866120      1.15810614069977      0.38161719598097
  C          -0.27580806953229      1.91561770011747     -0.17935320947133
  C          -1.50764982258719      1.85801995439296      0.49826804214401
  O          -2.05356704733581      0.23200368872692      0.28209809169448
  C           2.07114278009683      1.08506755473436     -0.34086682093176
  H           0.89542822747541      1.29849125635272      1.45309309381458
  H          -0.28804888611569      2.07411983003500     -1.25060976291867
  H          -2.35286723888402      2.37431387820935      0.06621662890723
  H          -1.48281834938599      1.86446720683231      1.58225490601207
  O           0.73295894456595     -1.76245269232191      2.41985189797632
  O          -0.59186515072677     -0.07820933993168      2.64118759867336
  C          -0.70041539302426     -2.38961397254479     -1.62993766436091
  H          -0.43095791934805     -3.06369432077217     -0.81379736309548
  H           0.19854591292310     -2.02392697927708     -2.13143755563684
  H          -1.31882392244114     -2.92150513344390     -2.35017896169278
  Br          2.86415306639318      2.88477210012304     -0.41581522195463
  Br          3.35040183832235     -0.09160328898537      0.56768953068513
  Br          1.86050566662547      0.45257147527010     -2.17269149762518
