23
Coordinates from ORCA-job NEB_reactant E -50.349914213540
  C           1.42639822061871      0.17016182302654      0.13318030895443
  C           1.77080413845054      0.26753109041540     -1.18462440491604
  N           1.16779842682146      1.19199966806799      1.04575330933750
  H           1.24821148053730     -0.82127478521423      0.51792248517556
  O           1.67180411672849     -0.86276722486203     -1.88518422296835
  C           4.68052001830992      3.86958755969096     -2.14299677599806
  C           3.57536990295592      3.16822329666419     -2.34260645041753
  C           2.87382299783782      2.40980595510998     -1.26936844222360
  O           2.25246468952914      1.28648570633240     -1.88483242538052
  C           5.39668656730457      4.67121154514014     -3.15739201547376
  H           5.14414244307810      3.90923249099628     -1.16436132870514
  H           3.09697507570085      3.11817512424481     -3.31102984103770
  H           2.10964307165454      3.04714286214791     -0.79712261450309
  H           3.56406949736981      2.07504377855931     -0.48600607154836
  O           1.14554730310362      0.89359562884910      2.22498046897489
  O           0.93668451352921      2.32303731636322      0.62865438184361
  C           2.12252071056075     -0.87061957473715     -3.23286993882153
  H           1.98637155419776     -1.89405713696152     -3.57331859770598
  H           3.17589799306387     -0.59033219185132     -3.29728147080847
  H           1.52954490773504     -0.18951743293013     -3.84592189298755
  Br          7.25840837781974      4.02718150954162     -3.29033788519996
  Br          4.62716757006628      4.60833074532990     -4.93526838754003
  Br          5.45094642302655      6.56272224607665     -2.58756818805031
