23
Coordinates from ORCA-job NEB_product E -50.371200788460
  C           3.32470028717096      1.15537812124886     -1.09329939335770
  C           2.25910788517532      0.83317999735791     -2.16059203566432
  N           2.68302436699989      0.90503479988023      0.24200066439865
  H           4.12260029742197      0.40536905006881     -1.18381747857902
  O           2.61221965504370     -0.25256928633947     -2.82614887548351
  C           3.89715373257024      2.58069952192955     -1.14582293025503
  C           2.81515458412345      3.62675412459816     -1.24181458499618
  C           2.49215528959072      4.40784418844279     -0.22857479733511
  O           1.26175581697471      1.47306944234226     -2.32836882706630
  C           4.90217052568802      2.75368383050150     -2.27661982499627
  H           4.44296780455634      2.73684473982768     -0.20284502422842
  H           2.29921569129729      3.69830766676383     -2.18832084581992
  H           1.71061331008197      5.14065390486017     -0.31963473782125
  H           2.98143347639452      4.33645698607296      0.72891968022329
  O           1.90129132682325     -0.00654233664839      0.27595217733955
  O           3.01140349047365      1.59854946584524      1.16482858000629
  C           1.71533124306080     -0.69126692168790     -3.84253523563760
  H           2.10621099759292     -1.63972041246578     -4.19931546713048
  H           1.68566964139442      0.04199960467288     -4.65069553972013
  H           0.71332288582296     -0.81303048713005     -3.42928135622320
  Br          5.61046558252676      4.57418332396769     -2.23567057340702
  Br          6.42068636892646      1.52499620645120     -2.07669549083075
  Br          4.12534574028968      2.45362446943989     -4.03614808341556
