23
Coordinates from ORCA-job NEB E -45.137475632620
  C           0.60348839596423     -0.19983252345256      0.78714765798964
  C          -0.69413392850477     -0.09868247021202      1.31601192518606
  C           1.55330613051314      0.97237694304046      0.95019446027169
  H           1.13376226509492     -1.12246659985225      1.01062440675666
  C          -1.44008124053159     -1.35473182337680      1.71104887142818
  C           0.17625967928812     -0.31876165717978     -1.08235371411416
  C          -0.60711393765093      0.82134515444005     -1.29248003136421
  C          -1.81479527675253      0.97064828420731     -0.54884882185753
  O          -1.42370117225635      0.93978669402756      1.01260471976595
  C           1.45103188984872     -0.48473666162120     -1.88087625044824
  H          -0.33598221522955     -1.27422416389944     -0.99395957451290
  H          -0.12598510324861      1.70825735629300     -1.67431567168430
  H          -2.51226543377825      0.13480302954989     -0.59112347282255
  H          -2.31372262598636      1.92704675083024     -0.64644207600714
  F           2.78407126028348      0.65124071543566      0.47991863025762
  F           1.18242675432641      2.10217099580552      0.32438842467551
  H           1.67660171137382      1.21656926372984      2.02027617106460
  F          -0.58645803702747     -2.38923869060815      1.98403985342771
  H          -2.10026729435653     -1.68998520295468      0.89566821331827
  H          -2.04332087438981     -1.17562936264960      2.60710026178581
  F           1.98880506273407      0.71481275416004     -2.25204404644689
  H           1.22459575216241     -1.02390965003039     -2.81017873184929
  H           2.22347823812344     -1.02685913568270     -1.32640120482050
