23
Coordinates from ORCA-job NEB_reactant E -45.173874028790
  C           1.35012707540510     -0.00926513160395     -0.27007449486577
  C           1.53007177842394     -1.21699407359599     -0.82052196019652
  C           1.66143576913995      1.35721853262093     -0.78299474127807
  H           0.89583528905253     -0.00274357070358      0.70737836225298
  C           1.10173302462782     -2.45887258826623     -0.06255848648095
  C           2.83358706318810     -1.22949784830209     -5.36273964038159
  C           3.07420975902901     -1.53052720758881     -4.09857901947230
  C           2.59193811627940     -0.71805915702628     -2.93980656940893
  O           2.04570550746125     -1.62732504433146     -1.98577283626471
  C           3.33557935468537     -2.01436018299795     -6.53132125397359
  H           2.25382004266041     -0.35891485977830     -5.63648209186994
  H           3.65111184823690     -2.40661252374735     -3.84034184974824
  H           1.83599619195530      0.00112637775431     -3.26628910012536
  H           3.43991524909027     -0.18297163814440     -2.49463286897989
  F           2.98588540660843      1.54688540107114     -1.05627895617240
  F           1.01264954291753      1.65661166175057     -1.94759439811887
  H           1.37542884879546      2.12927083822045     -0.05449415767025
  F           0.49745112837272     -2.17128278305150      1.12598281142289
  H           1.97648280759493     -3.08081778634605      0.15653320934857
  H           0.38858773330469     -3.03089591462689     -0.66556544376876
  F           4.07278006822487     -3.10403492931488     -6.14664850929297
  H           3.98680168683040     -1.39851925469291     -7.16470484922519
  H           2.50056670811562     -2.39301831729880     -7.13439315573011
