23
Coordinates from ORCA-job NEB_product E -45.181004931810
  C           2.10363344232610     -0.95624068931466     -1.90527049888780
  C           0.78001354312890     -1.71127486636720     -1.77559218362531
  C           1.97512241081181      0.41411618294444     -1.22376318261834
  H           2.90518554080391     -1.49569596543466     -1.39231589749600
  C           0.92435578431664     -3.04609283124366     -1.06685785894932
  C           2.47181513267421     -0.79566853490243     -3.40060908868322
  C           3.81372985945010     -0.13260669407177     -3.53525318811019
  C           3.99558543573801      1.04248599425175     -4.10476910426385
  O          -0.25633849911614     -1.28645559768147     -2.19839841031772
  C           2.47965271741569     -2.16382997599252     -4.08940635510929
  H           1.70239884012092     -0.18809044410621     -3.88597334618078
  H           4.64425800425178     -0.69374404833106     -3.12905923943339
  H           3.17255857198216      1.61390148443031     -4.50104755728287
  H           4.97220467751865      1.48659350472685     -4.18427858598187
  F           3.19876161865424      0.88689436126101     -0.88406420837448
  F           1.42069256680760      1.33966260458735     -2.02843707714179
  H           1.37400590578259      0.37042965408402     -0.30085838817208
  F          -0.26781892181081     -3.70118938619124     -0.98367171867484
  H           1.28904045430170     -2.89043734107477     -0.04401554107743
  H           1.62448147888298     -3.69202269193122     -1.61001113773841
  F           3.23748945703262     -3.06465538285613     -3.37622686763642
  H           2.92526966398779     -2.09202124805134     -5.08546872058335
  H           1.47260231493855     -2.58665808873537     -4.15975184366126
