23
Coordinates from ORCA-job NEB_reactant E -66.311719557880
  C           1.88127881735875     -0.30500893784559     -0.72487434346649
  C           0.97646913421019     -0.19203604855469     -1.70252028149728
  C           2.93933178302850      0.65737292093954     -0.29130544594724
  H           1.86471049533150     -1.19521012331150     -0.11508307101326
  C          -0.01544457835924     -1.34361358142314     -1.90142080355980
  C           2.93582884648261      0.31436551101611     -4.28265917785848
  C           2.72247739447972      1.49227203543511     -3.72044397272849
  C           1.51828527207855      1.84085128798433     -2.90370032273446
  O           0.68333366169930      0.72773599359615     -2.61995687215330
  C           4.15897099693129      0.01808519070507     -5.09280560138515
  H           2.25553464970718     -0.52128289079434     -4.21144506149117
  H           3.43427434622460      2.29739741425725     -3.83448290878619
  H           0.87564959807834      2.51006879015392     -3.48706165112235
  H           1.81095573967723      2.37251372415932     -1.99489988439514
  F           3.85129307873637      0.94019710672291     -1.23989821572959
  F           2.44278363028675      1.84927981183842      0.10211455835765
  F           3.61401773287928      0.17082058091066      0.74963480902361
  F          -1.27506040854575     -0.91076234510013     -1.87687000542199
  F           0.18341828398313     -1.92327853969464     -3.09124105655698
  F           0.09239944647274     -2.29963500813428     -0.97912861696533
  F           4.99244911139380      1.05963841314125     -5.19991897958177
  F           4.86761237052199     -0.99331207223332     -4.56473150026691
  F           3.84703059734316     -0.35445923376843     -6.34530159471988
