27
Coordinates from ORCA-job P E -37.960447659580
  C          -1.40519206472605      0.45831612277939     -2.32287056298936
  C          -0.07822872273305     -1.60158358203701     -1.10471027293741
  C          -1.43479171619809     -1.86798399595934     -1.66737172766360
  C          -2.07477671783276     -0.88375618732871     -2.27901171295317
  C          -0.94724898403332      0.80167191663931     -0.89053281112547
  C          -0.05602392195225     -0.29189837474380     -0.27098666667250
  H          -1.85262511790010     -2.85806049146093     -1.57310918068961
  H          -3.05552608303905     -0.99499081740108     -2.71085389720878
  C          -2.30463963773805      1.55989151304802     -2.83332581912007
  H           0.26885633031729     -2.43258964639184     -0.48878160742524
  H          -0.52940011788424      0.42216418748299     -2.98143928263506
  H           0.62113265278561     -1.48524511686687     -1.93818861624467
  H          -1.84387103157617      0.92503481037759     -0.28250653548094
  H          -0.46017815996127     -0.52949861443283      0.71985638898489
  H          -0.40492862025294      1.74698575770903     -0.88162206063543
  N           1.27874551636459      0.22874678043497     -0.01774244416672
  O          -1.99042649869242      2.37773667985946     -3.65861157964090
  O          -3.50247452728770      1.53790579046179     -2.23697000362789
  C          -4.41372569616647      2.55456018910442     -2.62592576182904
  H          -5.32784475595055      2.37548707250125     -2.06584425513334
  H          -4.60394492388121      2.50303340054990     -3.69999429846438
  H          -4.00523368921477      3.53939653795174     -2.39016955895294
  C           2.09592790917399      0.56506810321389     -1.16663203263651
  H           1.78771820833191     -0.41602700614251      0.57794321190103
  H           1.54982445993912      1.24500049121159     -1.81737525743071
  H           2.42305837159788     -0.29898427028170     -1.76309056652684
  H           2.98563753851007      1.08013874972127     -0.80523308869533
