27
Coordinates from ORCA-job TS E -37.868009407060
  C          -0.52948585842366     -0.13852346316183     -0.84424565313509
  C           0.90816235086933     -2.39566927329686      0.12964349229464
  C          -0.43373006527581     -2.43066750666494     -0.06985341344973
  C          -1.15485333931556     -1.34284248373082     -0.58741441398612
  C           0.14261652454746      0.45235848267626      1.08694153542218
  C           1.08248332702691     -0.42438356369964      1.57381979485280
  H          -1.00261391636162     -3.25814354846902      0.33367766629513
  H          -2.23276034331715     -1.36808494228024     -0.54212711756431
  C          -1.29072650461046      1.05521740971958     -1.24708582944311
  H           1.40428697139405     -3.19719030293528      0.65334645133002
  H           0.48416003428020     -0.12094466013916     -1.21308897645744
  H           1.54525667315042     -1.74599845697446     -0.43983639434852
  H          -0.84459057429988      0.41297171809746      1.51130426412262
  H           0.78893568617938     -1.18392713506972      2.28116012504994
  H           0.44880296696638      1.41114361520998      0.70715585384163
  N           2.44386970304101     -0.23262450344933      1.50530785479405
  O          -0.81193297683466      2.00780319640936     -1.81883530265336
  O          -2.58560748832655      1.00239626998722     -0.88386724318479
  C          -3.36957628985095      2.13067954028300     -1.23147844412057
  H          -4.36589532696519      1.94335799698651     -0.83869750489746
  H          -3.40245830837383      2.25239290454307     -2.31653181371698
  H          -2.94766139150161      3.03739587185007     -0.79197444926099
  C           3.05537674539363      0.61958566951952      0.51494016558485
  H           2.99465597025646     -1.04609526641580      1.73579736495225
  H           2.57092681537528      1.59394062571644      0.52007043003988
  H           2.99776952228438      0.21142399119679     -0.50135119137018
  H           4.10458909269205      0.75442781409184      0.77322274900867
