14
Coordinates from ORCA-job NEB_product E -30.170853519640
  C           1.27077924484902     -1.16537753879457     -1.25472933078343
  C           1.89678454344491     -1.55866132921019      0.06715019085103
  F           2.27668920210391     -1.00590889733155     -2.16765836846501
  H           0.73739544391483     -0.21003597265965     -1.17766762679724
  Br          0.87862951010754     -0.86671647066985      1.58028333756534
  C           0.34546683953044     -2.30102776056421     -1.71223727010401
  C          -0.70573956874932     -2.64255730342335     -0.71364111565768
  C          -0.86755788446488     -3.85815777332381     -0.22356863255209
  O           2.85409840844041     -2.21902294120508      0.24725903126463
  Br         -0.52926035972358     -1.72763236813315     -3.39528416979207
  H           0.95584041680525     -3.16765686362307     -1.97828706509404
  H          -1.36044495763958     -1.83029648344762     -0.42881513381901
  H          -0.23198535686727     -4.68011723877682     -0.51050832013766
  H          -1.64179548175169     -4.07423105883709      0.49070447352126
