19
Coordinates from ORCA-job NEB E -41.682413759150
  C           0.02363340011748      0.70129311630762     -1.18616565529666
  C          -1.03290820210645     -0.10337234625798     -0.68587258165330
  F           0.78095479236821      0.22445972937868     -2.19235373143574
  H          -0.19633783736700      1.75312151949142     -1.34970930003572
  C          -1.20006486721923     -1.55996664363055     -1.06436856022477
  C           1.17573730644883      0.88472386762775      0.27829290015346
  C           0.31218640401973      1.30911210612883      1.31046528975519
  C          -0.70012217555480      0.40085253485343      1.70517993513670
  O          -1.64428099277055      0.35875793195179      0.35087710540333
  N           1.72493578802734     -0.42836894868544      0.39709740832943
  H           1.84656720246687      1.64967610123539     -0.13395457151630
  H           0.11161031302237      2.36746947147898      1.38991296861668
  H          -1.41011837155702      0.73326039717109      2.45063080042754
  H          -0.40032795342921     -0.63498031592233      1.81313767035182
  Cl         -2.44539252006107     -2.29024810329640     -0.03822753769804
  Cl         -1.77243116984430     -1.60124105150690     -2.76528906768101
  Cl          0.25101002981153     -2.58047508447563     -0.97729723339252
  H           2.39246436102356     -0.46634661565028      1.15689494415879
  H           2.18288449260373     -0.71772766619945     -0.45925078339889
