19
Coordinates from ORCA-job NEB_reactant E -41.722429042560
  C           2.28017011345321      0.38813898959250     -0.38422001457603
  C           1.54378899473112      1.38645116359721     -0.87506031571141
  F           2.78151136239581      0.36664051047076      0.86281592041443
  H           2.54325475860314     -0.49555929905292     -0.93952813961291
  C           1.05138785990918      1.33403126116770     -2.29996955115090
  C           3.74965324258503      3.99251639720430     -0.42963735053375
  C           3.32144214311976      3.24420122824046      0.58779708335149
  C           1.86306162523681      3.02872791720439      0.85152094977878
  O           1.16108668246550      2.54493600796329     -0.30688096692243
  N           5.06358343642967      4.27957456366905     -0.70648882999044
  H           3.03800584901350      4.48442726344832     -1.07954055880139
  H           4.01936507734784      2.73645330193611      1.23478206518537
  H           1.34432114426423      3.96824082075448      1.06422316558235
  H           1.71559622714666      2.34514197769038      1.69127663743264
  Cl          1.04481376781281     -0.28855860588169     -2.99108213438892
  Cl         -0.59314379512339      1.99109797529702     -2.39742937230655
  Cl          2.12716661676762      2.35804613129394     -3.29319308036550
  H           5.74494307943486      3.69737995027776     -0.24412418802641
  H           5.28649181440663      4.50151244512692     -1.66246131935843
