34
Coordinates from ORCA-job P E -41.223623282700
  C          -1.77733902569199      0.19846938733063     -2.51411403231214
  C          -0.11185240268131     -1.64248302168780     -1.28894377343362
  C          -1.54819048570165     -2.00375457591808     -1.49875532501214
  C          -2.34784770073763     -1.11123668272376     -2.05914204043418
  C          -0.86219038429824      0.80861220651465     -1.42777788940135
  C          -0.07722161773238     -0.25149677597474     -0.61902597266680
  H          -1.90465181430191     -2.96635472004027     -1.16751239772271
  H          -3.40028395095106     -1.26215573729071     -2.23092807403016
  O          -2.85076968880233      1.05353752849947     -2.85538996436462
  H           0.39336847151437     -2.35365319654470     -0.63681886437937
  H          -1.16875262560058      0.01326670021788     -3.42189539168567
  H           0.39872005827594     -1.63948527736876     -2.24951544036462
  H          -1.50495583588790      1.37357617474170     -0.74924066807636
  H          -0.63353531660268     -0.40656164876810      0.31231840715570
  H          -0.17489920349758      1.51502917409736     -1.89313978777529
  N           1.26586285092245      0.12883232279044     -0.18614618697646
  C          -2.48271245397267      2.20401302450631     -3.56728600000842
  H          -3.41018540555015      2.68696949501828     -3.87021892473588
  H          -1.89832815537137      1.94827978729147     -4.46126556019157
  H          -1.90038881016296      2.90158055932449     -2.95420119696743
  C           2.18639118714876      0.76138576805190     -1.13587321501134
  C           3.61549551435497      0.68492565198506     -0.57805521908715
  C           2.20419734109302      0.10914871938289     -2.51678132396173
  C           1.21625983917785      0.89077541999889      1.04909255845607
  H           1.93022533847830      1.83269139633287     -1.26497780731864
  H           3.80681512892664     -0.32002655792912     -0.21166937402000
  H           3.78102492328976      1.39241925928116      0.22875310628424
  H           4.32984687278706      0.91143107297429     -1.36554476203474
  H           2.51042648412036     -0.93000829609265     -2.43455165624838
  H           2.92806348774455      0.63097185951349     -3.14035950759253
  H           1.24161488538182      0.16498670454945     -3.01363411965977
  H           0.54477760316714      0.40141312697135      1.75175011394565
  H           0.87046453057916      1.92571292138297      0.89861103672125
  H           2.20178036058222      0.92027822958168      1.50610925291016
