34
Coordinates from ORCA-job R E -41.163580136940
  C          -1.62032973009051     -0.59048508854684     -2.63910553950644
  C           0.30216332113808     -2.92392340441194     -2.45158257379965
  C          -0.64797203954891     -2.60264370399271     -1.57604645641006
  C          -1.57848553061012     -1.49925117207397     -1.65963304326534
  C          -0.47437287568906      2.96343748308039     -1.13157237164682
  C          -0.33350790217476      1.94569130767132     -0.28336679492275
  H          -0.76014645648714     -3.21657537924896     -0.69054425113187
  H          -2.29375965427557     -1.40420945447369     -0.85596224431800
  O          -2.52790571416111      0.41247184445403     -2.63985566736941
  H           0.94847555934231     -3.76935292304201     -2.29020333516496
  H          -0.93719121871661     -0.61923892461461     -3.48038155015290
  H           0.46942984490201     -2.36751007869107     -3.35745714651017
  H          -1.41463030233936      3.48002771791745     -1.18884636802529
  H          -1.19066107178680      1.65116527425019      0.30821171381271
  H           0.30914175750223      3.33736226541330     -1.76578737588439
  N           0.79348803054081      1.21886129059432      0.00878974244547
  C          -2.42936011486023      1.32943521080751     -3.70273913810247
  H          -3.21137839579162      2.06932765508596     -3.54432266484711
  H          -2.58560607807184      0.83694239301963     -4.66898611493383
  H          -1.45583263776405      1.83060450935121     -3.70693657289976
  C           1.97334832200085      1.38997206283396     -0.82092548787661
  C           3.24234210115895      0.92116348389205     -0.11331058617532
  C           1.81275683549714      0.69414499773014     -2.17855887413850
  C           0.63654259264624     -0.04270944399822      0.69123028203555
  H           2.06774886544011      2.46860733680893     -0.99007608617646
  H           3.26696069412555     -0.16162285273225     -0.02233335288151
  H           3.31129334399887      1.36443431453948      0.87702848949369
  H           4.10993540948597      1.23253398664672     -0.69005370906247
  H           1.80363931596867     -0.38674218126756     -2.05868523007875
  H           2.62537860777226      0.96634936066967     -2.84680059051952
  H           0.86739738919274      1.00274295110841     -2.61670145998457
  H          -0.33392931133285     -0.06915516680910      1.18198335424423
  H           1.40634002210229     -0.15648483352963      1.45693387110497
  H           0.69241702088547     -0.89461083844214      0.00443713264830
