20
Coordinates from ORCA-job NEB_product E -47.959066135560
  C           2.39123798490794      2.12205525869684      0.20758832591877
  C           1.29505085015687      2.80370505265733     -0.56723731145277
  H           1.99773427030543      1.14483158819854      0.50511972114505
  H           3.29108565539806      1.96412615942657     -0.38659440605883
  C           1.43210517986027      2.77241070270404     -2.09076626892497
  C           2.71975829609186      2.90131460302713      1.49106502111540
  C           3.44767248036124      2.02509287553456      2.47278823215680
  C           3.01864815707013      1.79670816903372      3.69857687967831
  O           0.29006177073945      3.23803107145319     -0.08350969462723
  C           3.55942482758858      4.14111141818899      1.16907400626728
  H           1.78134563574729      3.25108885886586      1.93626231699509
  H           4.36216961340030      1.58176042022221      2.10689071398638
  H           2.11018904814959      2.23608384334765      4.07615777547249
  H           3.56039498594401      1.16000266264399      4.37556995510774
  Br          0.06671269062443      3.87272800949992     -2.89700289216498
  Br          3.16857455259714      3.28440009987600     -2.76941946165269
  Br          1.11421373656144      0.89125403627123     -2.55685614995874
  Cl          2.70001659663643      5.19917851667102      0.01869748287707
  Cl          3.86026717645444      5.06435686883651      2.65719647715651
  Cl          5.12783649140512      3.70525978484471      0.44839927696332
