20
Coordinates from ORCA-job NEB_reactant E -47.948181753250
  C           2.73181641070993      1.10598097220974     -0.28676163674009
  C           1.62905400825315      1.82427177153596     -0.13620708660512
  H           3.37698393020101      0.88123574986284      0.54131513453344
  H           3.03377155322732      0.72677736002480     -1.24391654427133
  C           0.70414800210237      2.22300722206804     -1.24408786733447
  C           3.45535674256345      3.86946168432960      1.57842962380523
  C           3.10955485822474      2.84902687133195      2.34739759936424
  C           1.80567228322362      2.11914645958880      2.22148135345564
  O           1.12387016110767      2.35508580691683      1.01130908465442
  C           4.74437097372080      4.60166879616324      1.63719279080297
  H           2.79318060361345      4.24438958696248      0.80984734503222
  H           3.76137905117435      2.48728752848321      3.12865814846546
  H           1.11574945954423      2.46756132010191      2.99810746152437
  H           1.96403069985547      1.04180016021153      2.36330478880616
  Br         -1.12028974883261      1.70525216483374     -0.77153161661721
  Br          0.75431863540054      4.17989882060562     -1.40247197663015
  Br          1.12337934041784      1.46886380589640     -2.96438252234285
  Cl          5.59536969691759      4.37768374473822      0.07471194642816
  Cl          4.43137299675493      6.34655825086169      1.85724602979798
  Cl          5.81711034182015      4.05784192327339      2.93285794387094
