17
Coordinates from ORCA-job NEB E -39.496799261530
  C           1.02013165899122      0.09354987141793      0.84513535136531
  C          -0.36554868473523      0.29986757969203      0.96628475949064
  Br          2.11567306621263      1.67081628640124      0.93278112959120
  H           1.47541504492548     -0.69742306743940      1.43408621350453
  C          -1.24925076186800     -0.72029657182904      1.59070265999854
  C           1.14724120300736     -0.46449369540236     -0.96346149601302
  C           0.53044968135429      0.58017796216914     -1.64788425501264
  C          -0.84401099713574      0.87056344476201     -1.33128308222117
  O          -0.93907430033283      1.18715156434557      0.19294495715461
  I           3.19344871421529     -0.86629607737787     -1.37709594731649
  H           0.61535790494094     -1.40240132810029     -0.85196184506257
  H           1.13587476475918      1.37020992013597     -2.06807892700210
  H          -1.53001029998350      0.03017743959045     -1.44573430265265
  H          -1.23810457041655      1.77191549954734     -1.78956413739441
  Br         -0.55060309942735     -1.38862373436061      3.27090515418622
  Br         -3.01206962769093      0.02965252460140      1.86207665798375
  Br         -1.50491969681628     -2.36454761815354      0.38014710940025
