19
Coordinates from ORCA-job NEB E -40.166729044990
  C           0.44192508244320     -0.85762954634541      0.42008485599713
  C          -0.81732703704081     -0.86682939445469     -0.21165617723734
  C           0.47145885458621     -0.61912801317459      1.91548098702483
  H           1.11507612879192     -1.66173418969497      0.12291133313875
  N          -0.91513977219571     -1.53756478772259     -1.48801318361655
  C           1.15435787220795      0.67829024751718     -0.41190991617838
  C           0.18482694142707      1.65676815308678     -0.17170820381064
  C          -1.15604705073473      1.43776551157989     -0.66438932806608
  O          -1.64755811998983      0.12706128535578     -0.02240124193233
  Br          2.91061278204072      0.99419904073041      0.29652514651720
  H           1.24947287800415      0.25588640435327     -1.40694419889853
  H           0.32895100956801      2.34583319423350      0.64764222808909
  H          -1.24268341288525      1.24198821365865     -1.73542749268316
  H          -1.88290250911274      2.17658312745248     -0.34161912378230
  F           1.71224677576709     -0.87166856692098      2.42062532531787
  H          -0.21262209076116     -1.32710696967893      2.39879512403800
  H           0.19861758337995      0.40172199060221      2.19794781243331
  O          -1.78249618772818     -1.15317799242726     -2.24584718296216
  O          -0.11076972776787     -2.42125770815072     -1.72009676338870
