19
Coordinates from ORCA-job NEB_reactant E -40.191559283690
  C           1.82244810567457     -0.08018136244138      0.17646778914164
  C           1.71813295197226      0.52415268158946     -1.00606323565523
  C           1.18847343321798      0.42262291771415      1.42757953666443
  H           2.38310721286689     -1.00193793382087      0.24862415263943
  N           2.37662015179127     -0.07254383462567     -2.17996100172639
  C           2.78064423908992      3.61521195012130     -3.27767333352578
  C           2.82689711803815      3.01837598148662     -2.09879706030366
  C           1.62713215151050      2.89803605052019     -1.20895355124929
  O           0.98145148030009      1.61902100443225     -1.28747651795214
  Br          4.28188127933587      3.77443803916209     -4.39472216791285
  H           1.88834999471413      4.06270087424287     -3.68579640957296
  H           3.74544600477229      2.57029418588700     -1.74390804948814
  H           0.84653328712436      3.59825139856400     -1.50977408245065
  H           1.91522037210872      3.09012227600108     -0.16675538302432
  F           1.03051814479805     -0.59337975544253      2.32649422592911
  H           0.19886564594830      0.85185024608554      1.23343200231959
  H           1.82655265563576      1.17257745898096      1.91626032183027
  O           2.19642438327536      0.47906823938915     -3.23851206129304
  O           3.04830138782553     -1.06198041784622     -1.99846517436999
