18
Coordinates from ORCA-job NEB E -42.337542099610
  C          -0.13884424036100     -1.24371433416251      0.75096572657240
  C          -1.44631305643485     -1.23154925154368      0.24169210655717
  O           0.05077971129413     -0.71053426055325      1.97923301242737
  H           0.48370737583923     -2.09064275489005      0.47385190036522
  F          -1.60132605481540     -2.07058228923092     -0.84825857320010
  C           0.49489661578225      0.20864210185644     -0.55254406422701
  C          -0.38611548230158      1.24570948048644     -0.24542940650919
  C          -1.73692572869353      1.10395915276208     -0.59734285458725
  O          -2.25002475819030     -0.28584694957544      0.33768449846632
  C           1.96456991409253      0.37762702063563     -0.30921411793053
  H           0.31011660255750     -0.36428702525620     -1.45648234484798
  H          -0.12252947643895      1.93369380515390      0.54326626789619
  H          -1.97292909315496      0.68600618242464     -1.56818232323919
  H          -2.43402642385888      1.85283315829793     -0.25309617962079
  H           0.96788069628690     -0.81550659256473      2.26260718282969
  Cl          2.62768930430953      1.42568808532049     -1.61335755683268
  Cl          2.34604732640179      1.15064855115063      1.24265073675157
  Cl          2.84334676768559     -1.17214408031140     -0.38804401087121
