18
Coordinates from ORCA-job NEB_product E -42.380176427420
  C           2.88319926321484      0.94124532633855     -1.08462262081531
  C           1.38095172730769      0.89675455215652     -1.25671529314614
  O           3.16172678260129      0.42626947445865      0.17652952831387
  H           3.31958536525320      0.32232525398389     -1.88832533936495
  F           1.06142773668457      1.23442472480887     -2.54570553370589
  C           3.33342984328975      2.41824998842126     -1.30563415673386
  C           2.88157683527203      3.27052870440253     -0.15055000280315
  C           2.11475390718762      4.33357077191743     -0.29409612636712
  O           0.52972364424628      0.63374046547424     -0.49639639043693
  C           4.84363392474385      2.54655426699339     -1.52149167955546
  H           2.86779752426583      2.77403162346119     -2.23138580265699
  H           3.20587758805569      2.93836016637886      0.82430664468741
  H           1.77584607530954      4.66910090826666     -1.26058201021689
  H           1.79471597637380      4.91290364895396      0.55363972269953
  H           4.11611419644759      0.44045658833450      0.33322892116065
  Cl          5.24204364959787      4.25351223836080     -1.84833257207118
  Cl          5.79444128243962      2.02981313341999     -0.10629728710383
  Cl          5.37335467770893      1.58025816386872     -2.92487000188375
