31
Coordinates from ORCA-job R E -46.346397387750
  C          -1.76790182459240     -0.10978022568129     -2.50376770591675
  C          -0.68734578626296     -2.70298562070556     -1.37978657285401
  C          -1.84743846284954     -2.12961254302794     -1.07159449862308
  C          -2.39625497382448     -0.91173616695944     -1.64579536236459
  C          -0.07539414005762      1.37676369262790      0.66505782492074
  C           0.52116359069257      0.40092994362655      0.00874751304019
  H          -2.47232665283414     -2.59656904495454     -0.31934755717639
  H          -3.39744574435294     -0.67188565128498     -1.31659319178551
  C          -2.29035479860176      1.15730645639903     -3.12054331186790
  H          -0.36310849207362     -3.60895317663107     -0.89658456407870
  H          -0.76447170210142     -0.35647127013801     -2.82313427109969
  H          -0.02477751246156     -2.30411582683234     -2.12912186195367
  H          -0.98858622452641      1.20150923738430      1.20551657317197
  H           0.14375327955960     -0.61003183272532     -0.03755431698067
  H           0.32481012439524      2.37730603626733      0.68676523308189
  C           1.79218240752954      0.59931631457315     -0.75671244906961
  C          -3.72190052030221      1.48697314461573     -2.69900962281357
  C          -1.36120559012348      2.30642572935582     -2.70381028221971
  C          -2.23472121949167      0.99420875942028     -4.64595569282993
  H          -3.78597052987790      1.62818352796223     -1.62251077421631
  H          -4.40286992314916      0.69130463582835     -2.99152847556022
  H          -4.04563339670155      2.40659459913344     -3.18157632617458
  H          -1.39645690458758      2.44963007802951     -1.62547096210992
  H          -1.66588680964946      3.23194495935639     -3.18720810763783
  H          -0.33368053637091      2.09228304647913     -2.98816278139466
  H          -2.87053380777859      0.16990847732435     -4.96177314536042
  H          -1.21772673616436      0.78863008164707     -4.97160464139372
  H          -2.57643219635817      1.90308404737743     -5.13632130595228
  F           1.67288755453515      0.20489384654678     -2.03827519063348
  F           2.20966258478783      1.87168050827173     -0.79144429853078
  F           2.80586494359395     -0.12138576328604     -0.24205987361682
