31
Coordinates from ORCA-job TS E -46.335372026440
  C          -0.32830082268346     -0.19732138647918     -0.49331756638253
  C           1.10558614281577     -2.48028054366537      0.56945546747867
  C          -0.24612903068608     -2.41763908393051      0.51563731774642
  C          -0.94710915075934     -1.31504780317921     -0.02339554157791
  C           0.59296945658106      0.36032908462468      1.54130558065746
  C           1.40993879563004     -0.63678426889119      1.96903776810518
  H          -0.82804257594136     -3.15257570158141      1.05579647825042
  H          -2.02049831870102     -1.31488787152310      0.10430783120631
  C          -1.07371429008484      0.97309099295435     -1.09450689623066
  H           1.59645401710979     -3.28924948981312      1.08479189126556
  H           0.70050600640413     -0.26680025532322     -0.81309276518541
  H           1.72011338217781     -1.93409369819228     -0.12265507549479
  H          -0.38574836435637      0.46905174344292      1.96754489352665
  H           1.13872412390155     -1.31207295092002      2.76176204317054
  H           1.00147158398862      1.19928870100629      1.00999201980191
  C           2.87725230367924     -0.53424667749692      1.71646662670631
  C          -2.28307777782909      1.40482440559646     -0.26147601877863
  C          -0.14227430845423      2.17488746505717     -1.28248038153467
  C          -1.55481026464664      0.51062657381736     -2.48177208517246
  H          -1.97917786749572      1.69019670935048      0.74251002821094
  H          -3.01984750860076      0.60979865843724     -0.18851375094642
  H          -2.76196439960094      2.26275396228564     -0.72818782559828
  H           0.10363236198686      2.63443457431283     -0.32832928644875
  H          -0.62721371499116      2.92965915948765     -1.89784356490587
  H           0.78104863944471      1.87786907297072     -1.77492128778797
  H          -2.21784831270332     -0.34616155858309     -2.39143478936660
  H          -0.70847727016579      0.22432459774739     -3.10182252536107
  H          -2.09169368558708      1.31465266444598     -2.98022443849209
  F           3.54213244043801     -1.68308405454967      1.91054876102485
  F           3.17960061664313     -0.11959053222958      0.47216428164248
  F           3.46649779248651      0.36404751082070      2.54265281047040
