22
Coordinates from ORCA-job NEB E -47.664142526480
  C           0.60458810749855      0.78697912532096      0.11510843257309
  C          -0.53257143726611      0.72803053462819      0.94943012400370
  C           0.48029882005620      1.61442650147443     -1.13975035449591
  H           1.56154163264446      0.89132970259589      0.61784154610358
  C          -0.40540669327663      0.49382522645384      2.43384367075422
  C           0.59153050267755     -1.00932896083140     -0.47613321139530
  C          -0.66366413727102     -1.14928579619380     -1.07971170572186
  C          -1.81148325042668     -0.96550011155441     -0.24702985814619
  O          -1.69212854483014      0.47405800485695      0.40669844848300
  N           1.75821020085451     -1.13705439254819     -1.33532959608453
  H           0.78675501236120     -1.48748995318625      0.47961880789815
  H          -0.73287381272818     -0.98898956259108     -2.14599715978493
  H          -1.85199321023692     -1.59663203267577      0.63873542266350
  H          -2.76492249373615     -0.92588727413181     -0.76245674422091
  H           1.13295238716630      1.27336534656417     -1.93881139921890
  H          -0.54714353297223      1.61157949202677     -1.49378398812920
  H           0.75985996164372      2.63786754496076     -0.89555598462092
  Cl         -0.13759701743241     -1.26301353134743      2.81342540256375
  Cl          0.95154379466834      1.39454865616369      3.12330384670152
  Cl         -1.90347007644286      0.98275988973237      3.24549046713884
  O           2.76310438445351     -1.56028838352447     -0.81616651643536
  O           1.65286940259499     -0.80530002619341     -2.49276965062935
