22
Coordinates from ORCA-job NEB E -49.089138035750
  C           0.19881779067560      0.75180933890288      0.92550705808404
  C          -1.20326098501716      0.49657327563889      0.78448897974734
  N           0.66259263318410      1.98215885649673      0.54446279412084
  H           0.68383916581313      0.35478948870571      1.81049941616271
  C          -1.84500420639268     -0.54656737913331      1.69317850334129
  C           0.70931624029086     -0.60728943567476     -0.45905916384143
  C           0.03957436153951     -0.13397932476651     -1.60484172774014
  C          -1.33698042924727     -0.24185447301121     -1.68945713140138
  O          -1.81531412677633      0.85537033425054     -0.25815025228376
  C           2.20785716783437     -0.67086466517839     -0.47480225769725
  H           0.30384296663245     -1.49357856132986      0.01608051779197
  H           0.54685203711136      0.58892078916680     -2.22807406811694
  H          -1.82980952834880     -1.11084872074813     -1.28114655001449
  H          -1.85723123770900      0.24232664572443     -2.49928616527618
  H           0.17499628010832      2.38726665156001     -0.24259248741137
  H           1.66183773209574      2.11038171341548      0.52044486135920
  F          -1.55439497883583     -1.82415945008923      1.29959078149529
  F          -1.38133396740735     -0.44434239632550      2.95938187429582
  H          -2.94004872146416     -0.44953426332946      1.70718639294686
  Cl          2.69879609558036     -2.07221133728946     -1.49906744074654
  Cl          2.98107382634231      0.76947429190622     -1.16962065897622
  Cl          2.89398188399048     -0.94384137889186      1.14527672416035
