22
Coordinates from ORCA-job NEB_reactant E -49.116880685810
  C           0.72306754651640     -0.34231597363455      0.04454146433461
  C           1.71256551962067     -1.16452725663699     -0.34405217290481
  N           0.10750444358576      0.55458575073473     -0.78377076087191
  H           0.40245367218280     -0.33151703341150      1.07498321543175
  C           2.39714164351179     -2.06119814069225      0.64395344124344
  C           3.79842981797877     -3.40076692756570     -2.24924380215931
  C           4.26896510328843     -2.16788634414998     -2.15260726411038
  C           3.39797002662341     -0.95445167508031     -2.02141228827624
  O           2.04726739192470     -1.23255148361444     -1.68942451254034
  C           4.61578484515481     -4.62844021822034     -2.39942422751696
  H           2.73416967972831     -3.58984465566197     -2.21283903623668
  H           5.32844749356211     -1.96173507361237     -2.18285448157758
  H           3.36322582814877     -0.45046997778864     -2.99652608642722
  H           3.84039277058042     -0.25944578814963     -1.29778669873329
  H           0.29551585287329      0.41379756101827     -1.76501615183883
  H          -0.83710661374608      0.81829396703491     -0.56045065921880
  F           2.27250227910799     -3.37444998463269      0.31777297342808
  F           3.74084538249869     -1.83436883372681      0.72657737675156
  H           1.98510274055906     -1.93024043885850      1.65580246443599
  Cl          4.30691034939556     -5.73634678735674     -1.03236172247647
  Cl          4.13558425516131     -5.46702342563702     -3.90726235765229
  Cl          6.35595997174303     -4.32369726035748     -2.48059871308429
