17
Coordinates from ORCA-job P E -26.025129699580
  C          -1.43229196747048      0.95768591570958     -1.66142008397095
  C          -0.84355688638847     -1.27851773408424      0.20305233607955
  C          -1.82157272970681     -1.37159066518873     -0.92617586233164
  C          -2.08179320573189     -0.37976194531879     -1.76321842300193
  C          -0.76863566860322      1.17868052248260     -0.31079222408138
  C           0.07187849146069     -0.05409745662255      0.05042266495359
  H          -2.32165379145079     -2.32207257094782     -1.04117493479328
  H          -2.78214770150783     -0.50908446711621     -2.57521745619806
  Br         -2.79185320350089      2.37526994677670     -1.94299173696795
  H          -1.39070986294253     -1.20509697163822      1.14882363300980
  H          -0.72401701441558      1.10274249751693     -2.48334354834018
  H          -0.24544957382761     -2.19271602753353      0.24432835364945
  H          -1.53499648443446      1.31218566044782      0.45662052760957
  H           0.61317399471292      0.12917685258341      0.98621018857458
  H          -0.14768807025768      2.07693756821605     -0.33575499185338
  C           1.05313584096049     -0.30378559686960     -0.98124091292436
  N           1.82055783310411     -0.50525552841341     -1.80370752941343
