17
Coordinates from ORCA-job R E -25.929856131020
  C          -1.27534850145696     -0.43708517010867     -3.09492001437401
  C          -0.10036042487775     -3.11969599347836     -2.43771435510459
  C          -1.37365937658102     -2.85922671621208     -2.70982238827656
  C          -1.95839779859291     -1.52969800929564     -2.77575206275785
  C          -0.81925374036862      1.93173281953669      0.17810997431950
  C          -0.37969022220559      0.68458270268602      0.29656481958673
  H          -2.07225557313734     -3.67073807098580     -2.87282488429498
  H          -3.02025865387442     -1.46170358476685     -2.57681787073459
  Br         -2.08079408728798      1.27028610082234     -3.15690436568939
  H           0.26832699346729     -4.13054604199758     -2.40334317545584
  H          -0.22832395875640     -0.41968236794170     -3.34453764955467
  H           0.61243485922276     -2.34313083575081     -2.21574745728060
  H          -1.60274852035009      2.31857169160169      0.80585835099727
  H          -0.78160569834562     -0.00664737305430      1.02679476996157
  H          -0.41514793294362      2.60830164845327     -0.55703211458750
  C           0.63557619511854      0.16165096792740     -0.52719160671687
  N           1.45085644096972     -0.28489176743561     -1.19962997003763
