21
Coordinates from ORCA-job NEB E -45.292045322180
  C          -0.73012428488011     -0.08120106109254     -0.69713481456470
  C           0.53071410122975      0.21608440641156      0.06787429386039
  C          -0.49826815696580     -0.58840272789392     -2.11758394527488
  H          -1.27354830777853      0.87453172369757     -0.81583138843751
  O           1.70131548086888      0.00363235496893     -0.51329067203461
  C          -1.58343467923858     -0.92897852147908      0.25390969218624
  C          -1.29703260190460     -0.41564997276777      1.59657477880651
  C          -0.73363394408866      0.95250384249076      1.77430334184038
  O           0.48832338207916      1.09534299429438      1.06706684615567
  Cl         -1.04471322713449     -2.68179452307256      0.13054673862876
  H          -2.64061388362915     -0.99711727222576     -0.04211341214888
  H          -2.02398274453302     -0.68851360606120      2.34986609046413
  H          -0.49174974544128      1.14411989936301      2.82080478540207
  H          -1.42130942310160      1.74662477804167      1.43008968061549
  Cl          0.64160023909803     -1.91887007983221     -2.28879838047038
  Cl         -2.05517594519553     -1.07486837858550     -2.82084045288862
  Cl          0.13178732275878      0.77969125375126     -3.08600537817963
  C           2.85367439886845      0.54373714802329      0.11277850779077
  H           3.70211119618785      0.12957438576029     -0.42670521736585
  H           2.89165716555418      0.25623293361449      1.16535819614401
  H           2.85240365724627      1.63332042259334      0.03913070947066
