17
Coordinates from ORCA-job NEB_product E -33.523236607470
  C           3.35793960423891     -1.34788903079625     -1.84761872634394
  C           1.90734875588839     -1.81845189420938     -1.98425083106728
  Cl          3.78029587279955     -0.85128792123572     -0.18990873940081
  H           4.01452165913524     -2.18463970342263     -2.10608839894148
  C           0.98670017454773     -1.46625203984342     -0.83625748897724
  C           3.55301205514181     -0.20657373416823     -2.84385637161902
  C           2.74051376253716      0.99596697663104     -2.52161739885025
  C           1.88449108139539      1.53980988882756     -3.36778927716377
  O           1.55328273622173     -2.39594512685048     -2.97193305534459
  I           5.66211794922005      0.35472297764109     -2.92463161355172
  H           3.31952992572904     -0.58195871164748     -3.84185733650944
  H           2.90488263167475      1.41875643117925     -1.53955532965519
  H           1.72260501672033      1.13438621612127     -4.35307636597678
  H           1.30923918839308      2.41058081931448     -3.10646430811949
  F          -0.30310336678435     -1.78177077215939     -1.13637664005340
  H           1.03004245766464     -0.39110250672481     -0.62720963770019
  H           1.26798049547653     -2.03035186865694      0.06109151927461
