17
Coordinates from ORCA-job NEB_reactant E -33.517440608590
  C           1.72495509572445     -0.02825877047634     -0.31633339611903
  C           1.45038365554963     -0.88642287766881     -1.29528945008381
  Cl          2.25475280466435      1.61479459686302     -0.43841636590477
  H           1.61388568838890     -0.34757503029073      0.70641498267834
  C           0.98028988033792     -2.28646922759640     -0.95452850548017
  C           4.38909111489670      0.30595173383307     -4.22859006356610
  C           3.59273126702036      0.28057520716513     -3.17900014324757
  C           2.09690652710918      0.32193662790043     -3.29239677388781
  O           1.48152985982702     -0.78316107187437     -2.64830046974342
  I           6.48446664408927      0.27202035397028     -4.07957522383474
  H           4.03555233748299      0.36378050302288     -5.24426363129743
  H           3.98574261900891      0.21973229522605     -2.17486154877560
  H           1.78728918501325      0.23162917600452     -4.33695449680306
  H           1.71851105922621      1.26707643468295     -2.88895391156306
  F           0.72952819295238     -2.44356978106784      0.37657084531226
  H           1.74657246020611     -3.01973025780729     -1.23184920816258
  H           0.05341160850234     -2.50440991188654     -1.49577263952144
