23
Coordinates from ORCA-job NEB_reactant E -65.754632971470
  C           1.53380340513401     -0.16016109349964     -0.00994577840500
  C           1.55348318507182     -1.35362246484987      0.59570310421640
  C           1.97156798646566      0.22464990377382     -1.38312224195834
  H           1.14741542029945      0.68315547545797      0.53921442816142
  C           1.06130567911165     -1.49695934761440      2.02985354225044
  C           2.83052130830846     -5.02582518606771     -2.19241567014362
  C           2.85684456194592     -4.28296478905630     -1.09904156260734
  C           2.52550240841552     -2.82585908932439     -1.07127078195514
  O           1.95784731495672     -2.56025564878558      0.20627113948739
  C           3.20569143395440     -6.47532201511694     -2.19688118775738
  H           2.55268645852282     -4.64609608921014     -3.16408374636869
  H           3.13533687101663     -4.70422434497325     -0.14280050811224
  H           1.82615094815429     -2.57181285552448     -1.87264529552827
  H           3.45253432257564     -2.25181655681382     -1.19793757169558
  F           3.27880004557087     -0.00383689997092     -1.62865032878275
  F           1.30284818839353     -0.40790044077621     -2.37002710741298
  F           1.78003594687753      1.52991179881532     -1.58348197974089
  Cl          2.45912638924934     -1.96488331881747      3.03187035492311
  Cl          0.34682106860365     -0.04008577168899      2.71111089825843
  Cl         -0.15272708410950     -2.79730050660270      2.08430345622021
  F           3.53356518238517     -6.94496401193418     -0.98777498311839
  F           2.20499385768644     -7.24647505360269     -2.65288675439374
  F           4.25774510140997     -6.71285169381740     -2.99996142553703
