23
Coordinates from ORCA-job NEB_product E -65.762612331200
  C           2.11048354200413     -2.22224433095799     -0.20163010790239
  C           0.75837823956855     -2.52031627177997      0.45180899124777
  C           2.03516095845356     -0.84589963510459     -0.88412276354720
  H           2.91869426604817     -2.18373669595475      0.53409844251220
  C           0.74043826506448     -2.64047932638030      1.98388988126900
  C           2.39140452553668     -3.28971344122187     -1.28659845624118
  C           3.62129625391884     -2.97251564758759     -2.09740463179475
  C           3.60023049200507     -2.81544953147896     -3.40638715323817
  O          -0.24521619443148     -2.61830305118676     -0.18409834298231
  C           2.58686418929428     -4.66110538263836     -0.63762409500064
  H           1.51354275758387     -3.36832821020168     -1.93930104661322
  H           4.53915203687863     -2.89586387996409     -1.53190536004089
  H           2.68888661252600     -2.88750313339758     -3.97599449550979
  H           4.49866557704005     -2.60077145352559     -3.95655173288897
  F           3.25497545671899     -0.39420893577821     -1.19863965334467
  F           1.32444197645257     -0.86559563507984     -2.01039179872391
  F           1.48809672256275      0.07977207331288     -0.09307703000714
  Cl          2.19634409161276     -3.37977664914303      2.66298723672613
  Cl          0.61804346328103     -0.94936529553905      2.55932680368094
  Cl         -0.68154267196425     -3.55092189270864      2.49080781081791
  F           1.53213859966451     -5.03871852774022      0.10174072193114
  F           2.76710899680858     -5.60922770317698     -1.55967731148088
  F           3.65241184337222     -4.69442744276683      0.17154409113102
