17
Coordinates from ORCA-job NEB_product E -40.474730768260
  C           2.05305869189630     -2.47848718411890      1.39146154481160
  C           0.57107606691589     -2.30790552660983      1.60829357400019
  Br          2.48000173564345     -0.94977132847936      0.21827007641608
  H           2.62029966251852     -2.31007399102238      2.31050651681354
  F           0.32773177825468     -1.55678698221957      2.70213401733398
  C           2.39173773406770     -3.80701524037200      0.70789547538698
  C           3.65304567917651     -3.72628612124442     -0.11047591346218
  C           3.74091906551833     -4.18007387584437     -1.34625031466455
  O          -0.30853698457596     -2.68726701625686      0.92148067500620
  C           2.53520458504859     -4.91689943805981      1.75089510028271
  H           1.55088552852507     -4.07606980206407      0.05233694277011
  H           4.50371300181013     -3.27683790648357      0.38290184534476
  H           2.90344635293892     -4.62881074912677     -1.85496302149827
  H           4.66032746517669     -4.11445697179042     -1.89979003589040
  Br          2.74238464551573     -6.63795016518608      0.86360101276120
  Br          4.09535549355987     -4.63650132229783      2.89361189485941
  Br          0.95984949800957     -5.03020637882377      2.92669060972863
