17
Coordinates from ORCA-job NEB_reactant E -40.453238615240
  C           1.71445201377645     -0.19734059538480     -0.29755523687332
  C           1.33941355694889     -0.91638599876054      0.75614611382286
  Br          2.89146384132869     -0.70839165807811     -1.68091794719720
  H           1.32104344813147      0.79790849066485     -0.41171635271317
  F           0.48226180818586     -0.32051844943409      1.60344807377430
  C           2.73940270836636     -5.46202117754043      0.85486233733368
  C           2.56944010552782     -4.25894560228978      1.37898226198552
  C           2.48372670475927     -3.01204133941183      0.55989010343005
  O           1.59464368643323     -2.13386569699739      1.22991395472888
  C           2.87276056025863     -6.72870239159994      1.60593287843590
  H           2.81103278069341     -5.59536673675520     -0.21840766625051
  H           2.48713014677901     -4.10033396230261      2.44527558024896
  H           2.12830346850037     -3.23076075474537     -0.45290163736083
  H           3.48349433530901     -2.55954542078415      0.49494466953251
  Br          1.47525658849689     -7.98541187849963      1.01000604132667
  Br          4.62756937536865     -7.53986401919320      1.19390442460019
  Br          2.73760487113597     -6.55611280888776      3.53089240117552
