22
Coordinates from ORCA-job NEB E -43.983178577280
  C           0.59354242807030     -0.75219366485366      0.25174232941537
  C          -0.47986501582743     -1.13902940825381     -0.58247833610996
  C           0.46696679118875     -0.95077988471568      1.75184597803381
  H           1.59043331846848     -1.05019528278002     -0.06507412039110
  C          -0.20825193491479     -1.54144186561078     -2.00133722998562
  C           0.52437644796988      1.10741785358597     -0.03154349403367
  C          -0.78674280481278      1.48455293809887      0.29314534546851
  C          -1.84457023879122      0.86307348587782     -0.43356013477140
  O          -1.67477386477615     -0.72139634605891     -0.26673607620742
  N           1.61220962845065      1.68854470177294      0.76502355865298
  H           0.83528381163000      1.07051178608041     -1.07427066372143
  H          -0.96988671267249      1.86558797668522      1.28624881966667
  H          -1.79254213539307      0.94772970863961     -1.51844023130952
  H          -2.84349170193028      1.04457068885936     -0.05566098309843
  F           1.56944515984840     -0.48534460973954      2.38602505710667
  F          -0.58830526690102     -0.33278681341801      2.31209871840057
  H           0.38669797165675     -2.02571297560291      1.98924341878780
  H          -0.09958006330563     -0.64887032920501     -2.62564397818948
  H          -1.04941601345187     -2.11171743986679     -2.38672937984313
  H           0.69968846332984     -2.13047511787528     -2.07893970246126
  O           2.72569931793071      1.51328140329438      0.32638679425825
  O           1.33308241423297      2.30467319508581      1.75865431033181
