20
Coordinates from ORCA-job NEB E -52.612090968790
  C          -0.16372651941751      0.71623317661869     -0.59003781737831
  C           0.84612267302613      0.55633504405993      0.39437395598568
  C           0.01479080216916      0.82286429407715     -2.07635833375317
  H          -0.82542913928627      1.52129811737034     -0.27464080970885
  C           2.13811889903248     -0.23388977856828      0.20830407656618
  C          -1.50263500239170     -0.67344148995103     -0.07596245560059
  C          -1.17750617864550     -1.02575127555309      1.24400053275267
  C          -1.01922140128979     -0.01922173118442      2.18385207789562
  O           0.50735087223565      0.79003882686941      1.58775229980160
  I          -1.64865064465199     -2.27643457464576     -1.44665128862364
  H          -2.32751743338690      0.00667040616294     -0.23655104734079
  H          -0.66604228790008     -1.96385059391889      1.41228571874253
  H          -0.69372678781128     -0.27449409441689      3.18026686558652
  H          -1.63283551408415      0.86854398238588      2.12123742177825
  Cl          0.87970818230984     -0.47419722522429     -2.88935435545530
  Cl         -1.59535164260849      0.97677976261994     -2.84081376981877
  Cl          0.88572479912240      2.37006142758184     -2.40292454928010
  Cl          1.76437004961370     -1.92419468257813     -0.22290098055707
  Cl          3.18549157645486      0.49259723204348     -1.01956150823499
  Cl          3.03096469750944     -0.25594682374881      1.74368396664253
