17
Coordinates from ORCA-job NEB E -38.271089719710
  C           1.10036708864091      0.24375103268599     -0.28442616894212
  C           0.37045841698111      1.38653070834235      0.02683650315950
  C           1.00565508409973     -0.38604779793129     -1.64040699179634
  H           2.12309150889054      0.23291272526700      0.08287850670401
  F           0.93618577567953      2.15351065368341      1.01992141876154
  C           0.10773444397287     -0.99012756262642      0.99916916715513
  C          -1.21446289265977     -0.75495396936037      0.68747560436342
  C          -1.73835703442409      0.55416870253911      0.90220854693748
  O          -0.87914767745318      1.52080910437367     -0.11456581918049
  H           0.54153619348607     -1.94970193140303      0.76700072945128
  H           0.53263934947620     -0.50641230938619      1.86788139530584
  H          -1.71557123471279     -1.39501623754255     -0.02190225921238
  H          -1.50701968358997      1.02365649703923      1.85454246127249
  H          -2.75299968570785      0.74033968468711      0.57394484504735
  Cl          1.66139353466177     -2.03902497596638     -1.63445939478009
  Cl         -0.61510658108318     -0.41811730142343     -2.33237840813966
  Cl          2.04360339374210      0.58372297702179     -2.75372013610696
